
     RDKit          3D

 24 23  0  0  1  0  0  0  0  0999 V2000
   54.5360   45.0830   30.1760 C   0  0  0  0  0  0  0  0  0  0  0  0
   53.7940   46.0810   30.0780 O   0  0  0  0  0  0  0  0  0  0  0  0
   54.3570   44.1380   30.9690 O   0  0  0  0  0  0  0  0  0  0  0  0
   55.7450   45.0190   29.2470 C   0  0  0  0  0  0  0  0  0  0  0  0
   57.0040   44.5400   29.9800 C   0  0  0  0  0  0  0  0  0  0  0  0
   57.4780   45.5260   31.0280 C   0  0  0  0  0  0  0  0  0  0  0  0
   58.7530   45.8930   31.2140 C   0  0  0  0  0  0  0  0  0  0  0  0
   59.9340   45.3380   30.4630 C   0  0  0  0  0  0  0  0  0  0  0  0
   60.4330   46.1370   29.2960 C   0  0  0  0  0  0  0  0  0  0  0  0
   60.1500   47.3980   28.9210 C   0  0  0  0  0  0  0  0  0  0  0  0
   60.9490   48.0690   27.8200 C   0  0  0  0  0  0  0  0  0  0  0  0
   62.4080   47.7890   28.1220 C   0  0  0  0  0  0  0  0  0  0  0  0
   63.0800   46.7710   27.5620 C   0  0  0  0  0  0  0  0  0  0  0  0
   64.4440   46.2610   27.9540 C   0  0  0  0  0  0  0  0  0  0  0  0
   64.6610   46.2270   29.4550 C   0  0  0  0  0  0  0  0  0  0  0  0
   65.0790   45.1640   30.1610 C   0  0  0  0  0  0  0  0  0  0  0  0
   65.4330   45.2490   31.6280 C   0  0  0  0  0  0  0  0  0  0  0  0
   64.5940   44.3480   32.5120 C   0  0  0  0  0  0  0  0  0  0  0  0
   64.5230   44.4560   33.8510 C   0  0  0  0  0  0  0  0  0  0  0  0
   65.2640   45.4850   34.6870 C   0  0  0  0  0  0  0  0  0  0  0  0
   64.3600   46.1640   35.6980 C   0  0  0  0  0  0  0  0  0  0  0  0
   63.3770   47.0440   35.4320 C   0  0  0  0  0  0  0  0  0  0  0  0
   62.9310   47.5210   34.0660 C   0  0  0  0  0  0  0  0  0  0  0  0
   61.5020   47.0690   33.7520 C   0  0  0  0  0  0  0  0  0  0  0  0
  1  2  2  0
  1  3  1  0
  1  4  1  0
  4  5  1  0
  5  6  1  0
  6  7  2  0
  7  8  1  0
  8  9  1  0
  9 10  2  0
 10 11  1  0
 11 12  1  0
 12 13  2  0
 13 14  1  0
 14 15  1  0
 15 16  2  0
 16 17  1  0
 17 18  1  0
 18 19  2  0
 19 20  1  0
 20 21  1  0
 21 22  2  0
 22 23  1  0
 23 24  1  0
M  CHG  1   3  -1
M  END
