
     RDKit          3D

 23 24  0  0  1  0  0  0  0  0999 V2000
    2.3010   12.1740   -9.6160 C   0  0  0  0  0  0  0  0  0  0  0  0
    5.9600   12.8560   -9.9870 N   0  0  0  0  0  0  0  0  0  0  0  0
    1.9090   12.2020  -10.9260 O   0  0  0  0  0  0  0  0  0  0  0  0
    3.3300   11.7620   -5.2280 Cl  0  0  0  0  0  0  0  0  0  0  0  0
    1.3340   11.7780   -8.6670 C   0  0  0  0  0  0  0  0  0  0  0  0
    7.9820   15.3180  -10.3740 N   0  0  1  0  0  0  0  0  0  0  0  0
    5.2020   12.8010   -7.3660 O   0  0  0  0  0  0  0  0  0  0  0  0
    1.6890   11.6770   -7.3180 C   0  0  0  0  0  0  0  0  0  0  0  0
    4.2870   13.2600  -11.4070 O   0  0  0  0  0  0  0  0  0  0  0  0
    2.9820   11.9990   -6.8990 C   0  0  0  0  0  0  0  0  0  0  0  0
    3.9530   12.4570   -7.8260 C   0  0  0  0  0  0  0  0  0  0  0  0
    5.2360   14.0180   -6.6310 C   0  0  0  0  0  0  0  0  0  0  0  0
    3.6340   12.5110   -9.2200 C   0  0  0  0  0  0  0  0  0  0  0  0
    4.6510   12.9270  -10.2780 C   0  0  0  0  0  0  0  0  0  0  0  0
    7.0150   13.0740  -10.9780 C   0  0  0  0  0  0  0  0  0  0  0  0
    7.1920   14.5630  -11.3860 C   0  0  2  0  0  0  0  0  0  0  0  0
    7.9950   14.6890  -12.6850 C   0  0  0  0  0  0  0  0  0  0  0  0
    9.4370   14.6840  -12.2050 C   0  0  0  0  0  0  0  0  0  0  0  0
    9.3690   15.4590  -10.8900 C   0  0  0  0  0  0  0  0  0  0  0  0
    7.3830   16.6190   -9.9810 C   0  0  0  0  0  0  0  0  0  0  0  0
    6.2570   16.4550   -8.9580 C   0  0  0  0  0  0  0  0  0  0  0  0
   -0.0940   11.4520   -9.0720 C   0  0  0  0  0  0  0  0  0  0  0  0
   -0.9050   12.7080   -9.4000 C   0  0  0  0  0  0  0  0  0  0  0  0
  1  3  1  0
  1  5  2  0
  1 13  1  0
  2 14  1  0
  2 15  1  0
  4 10  1  0
  5  8  1  0
  5 22  1  0
  6 16  1  0
  6 19  1  0
  6 20  1  6
  7 11  1  0
  7 12  1  0
  8 10  2  0
  9 14  2  0
 10 11  1  0
 11 13  2  0
 13 14  1  0
 16 15  1  1
 16 17  1  0
 17 18  1  0
 18 19  1  0
 20 21  1  0
 22 23  1  0
M  CHG  1   6   1
M  END
