
     RDKit          3D

 33 36  0  0  1  0  0  0  0  0999 V2000
    6.3160    8.2930    6.7070 C   0  0  0  0  0  0  0  0  0  0  0  0
    5.6480    7.2940    7.4630 C   0  0  0  0  0  0  0  0  0  0  0  0
    6.4970    6.2790    7.9760 C   0  0  0  0  0  0  0  0  0  0  0  0
    7.8220    6.3360    7.7290 N   0  0  0  0  0  0  0  0  0  0  0  0
    7.6540    8.3660    6.4540 N   0  0  0  0  0  0  0  0  0  0  0  0
    4.5440   11.4630    5.7070 C   0  0  0  0  0  0  0  0  0  0  0  0
    5.4690   10.2840    5.3620 C   0  0  0  0  0  0  0  0  0  0  0  0
    5.2880    9.8290    3.9070 C   0  0  0  0  0  0  0  0  0  0  0  0
    5.3190    9.1470    6.2670 N   0  0  0  0  0  0  0  0  0  0  0  0
    4.0810    8.7590    6.6890 N   0  0  0  0  0  0  0  0  0  0  0  0
    8.3080    7.3510    7.0160 C   0  0  0  0  0  0  0  0  0  0  0  0
    6.0620    5.2010    8.7330 N   0  0  0  0  0  0  0  0  0  0  0  0
    4.2590    7.6760    7.4140 C   0  0  0  0  0  0  0  0  0  0  0  0
    3.1030    6.9670    7.9850 C   0  0  0  0  0  0  0  0  0  0  0  0
    1.9730    7.6730    8.4590 C   0  0  0  0  0  0  0  0  0  0  0  0
    0.8390    6.9750    8.9250 C   0  0  0  0  0  0  0  0  0  0  0  0
    3.0750    5.5580    8.0380 C   0  0  0  0  0  0  0  0  0  0  0  0
    1.9680    4.8660    8.5400 C   0  0  0  0  0  0  0  0  0  0  0  0
    0.8180    5.5690    8.9520 C   0  0  0  0  0  0  0  0  0  0  0  0
   -0.3630    4.9100    9.3850 N   0  0  0  0  0  0  0  0  0  0  0  0
   -0.8130    3.7320    8.9250 C   0  0  0  0  0  0  0  0  0  0  0  0
   -0.2170    3.0550    8.0890 O   0  0  0  0  0  0  0  0  0  0  0  0
   -2.0130    3.4090    9.4330 N   0  0  0  0  0  0  0  0  0  0  0  0
   -2.7470    2.2090    9.2190 C   0  0  0  0  0  0  0  0  0  0  0  0
   -2.1750    1.0190    8.7000 C   0  0  0  0  0  0  0  0  0  0  0  0
   -4.1120    2.2090    9.5620 C   0  0  0  0  0  0  0  0  0  0  0  0
   -4.8970    1.0580    9.3800 C   0  0  0  0  0  0  0  0  0  0  0  0
   -4.3230   -0.1130    8.8510 C   0  0  0  0  0  0  0  0  0  0  0  0
   -2.9620   -0.1300    8.4880 C   0  0  0  0  0  0  0  0  0  0  0  0
   -2.3600   -1.3780    7.8630 C   0  0  0  0  0  0  0  0  0  0  0  0
   -2.2530   -2.3260    8.7920 F   0  0  0  0  0  0  0  0  0  0  0  0
   -3.1520   -1.8170    6.8840 F   0  0  0  0  0  0  0  0  0  0  0  0
   -1.1510   -1.1460    7.3470 F   0  0  0  0  0  0  0  0  0  0  0  0
  1  2  1  0
  1  5  2  0
  1  9  1  0
  2  3  2  0
  2 13  1  0
  3  4  1  0
  3 12  1  0
  4 11  2  0
  5 11  1  0
  6  7  1  0
  7  8  1  0
  7  9  1  0
  9 10  1  0
 10 13  2  0
 13 14  1  0
 14 15  2  0
 14 17  1  0
 15 16  1  0
 16 19  2  0
 17 18  2  0
 18 19  1  0
 19 20  1  0
 20 21  1  0
 21 22  2  0
 21 23  1  0
 23 24  1  0
 24 25  2  0
 24 26  1  0
 25 29  1  0
 26 27  2  0
 27 28  1  0
 28 29  2  0
 29 30  1  0
 30 31  1  0
 30 32  1  0
 30 33  1  0
M  END
