
     RDKit          3D

 32 34  0  0  1  0  0  0  0  0999 V2000
  -35.6270   40.2210   31.9470 C   0  0  0  0  0  0  0  0  0  0  0  0
  -34.6350   39.5400   32.5430 N   0  0  0  0  0  0  0  0  0  0  0  0
  -33.8020   40.0240   33.6450 C   0  0  1  0  0  0  0  0  0  0  0  0
  -31.9880   43.2700   33.4080 C   0  0  0  0  0  0  0  0  0  0  0  0
  -33.0420   38.8250   34.2540 C   0  0  0  0  0  0  0  0  0  0  0  0
  -33.9010   37.6070   34.5430 C   0  0  0  0  0  0  0  0  0  0  0  0
  -33.7840   36.4600   33.7300 C   0  0  0  0  0  0  0  0  0  0  0  0
  -34.6020   35.3390   33.9640 C   0  0  0  0  0  0  0  0  0  0  0  0
  -35.5400   35.3600   35.0140 C   0  0  0  0  0  0  0  0  0  0  0  0
  -35.6550   36.5020   35.8310 C   0  0  0  0  0  0  0  0  0  0  0  0
  -34.8380   37.6260   35.5970 C   0  0  0  0  0  0  0  0  0  0  0  0
  -32.8380   42.1990   33.7890 O   0  0  0  0  0  0  0  0  0  0  0  0
  -31.9620   40.7870   32.2280 O   0  0  0  0  0  0  0  0  0  0  0  0
  -32.7610   41.0340   33.1300 C   0  0  0  0  0  0  0  0  0  0  0  0
  -31.8100   44.2250   34.5860 C   0  0  0  0  0  0  0  0  0  0  0  0
  -37.1210   37.4420   32.2900 C   0  0  0  0  0  0  0  0  0  0  0  0
  -35.8500   41.4050   32.1790 O   0  0  0  0  0  0  0  0  0  0  0  0
  -38.5970   37.8440   32.4320 C   0  0  0  0  0  0  0  0  0  0  0  0
  -38.7830   39.6370   32.4920 S   0  0  0  0  0  0  0  0  0  0  0  0
  -37.9450   39.9990   30.9240 C   0  0  0  0  0  0  0  0  0  0  0  0
  -36.4950   39.4680   30.9230 C   0  0  2  0  0  0  0  0  0  0  0  0
  -36.5160   37.9870   31.0530 N   0  0  0  0  0  0  0  0  0  0  0  0
  -36.6190   37.0180   29.6150 S   0  0  0  0  0  0  0  0  0  0  0  0
  -35.4030   35.7560   29.9400 C   0  0  0  0  0  0  0  0  0  0  0  0
  -35.8110   34.4520   30.2800 C   0  0  0  0  0  0  0  0  0  0  0  0
  -34.8390   33.4740   30.5650 C   0  0  0  0  0  0  0  0  0  0  0  0
  -33.4680   33.8030   30.5110 C   0  0  0  0  0  0  0  0  0  0  0  0
  -33.0720   35.1090   30.1560 C   0  0  0  0  0  0  0  0  0  0  0  0
  -34.0390   36.0880   29.8670 C   0  0  0  0  0  0  0  0  0  0  0  0
  -36.1240   37.8100   28.4770 O   0  0  0  0  0  0  0  0  0  0  0  0
  -37.9520   36.3980   29.5710 O   0  0  0  0  0  0  0  0  0  0  0  0
  -32.4250   32.7510   30.8210 C   0  0  0  0  0  0  0  0  0  0  0  0
  1  2  1  0
  1 17  2  0
 21  1  1  1
  2  3  1  0
  3  5  1  6
  3 14  1  0
  4 12  1  0
  4 15  1  0
  5  6  1  0
  6  7  2  0
  6 11  1  0
  7  8  1  0
  8  9  2  0
  9 10  1  0
 10 11  2  0
 12 14  1  0
 13 14  2  0
 16 18  1  0
 16 22  1  0
 18 19  1  0
 19 20  1  0
 20 21  1  0
 21 22  1  0
 22 23  1  0
 23 24  1  0
 23 30  2  0
 23 31  2  0
 24 25  2  0
 24 29  1  0
 25 26  1  0
 26 27  2  0
 27 28  1  0
 27 32  1  0
 28 29  2  0
M  END
