
     RDKit          3D

 28 31  0  0  1  0  0  0  0  0999 V2000
   43.6170   39.9290   27.6840 C   0  0  0  0  0  0  0  0  0  0  0  0
   42.6660   39.5420   28.7460 N   0  0  1  0  0  0  0  0  0  0  0  0
   41.2500   39.6660   28.3130 C   0  0  0  0  0  0  0  0  0  0  0  0
   40.2800   39.3910   29.4760 C   0  0  0  0  0  0  0  0  0  0  0  0
   40.5750   38.0170   30.0950 C   0  0  1  0  0  0  0  0  0  0  0  0
   42.0570   37.9040   30.5300 C   0  0  1  0  0  0  0  0  0  0  0  0
   42.9750   38.2090   29.3310 C   0  0  0  0  0  0  0  0  0  0  0  0
   39.5220   37.5380   31.1130 C   0  0  0  0  0  0  0  0  0  0  0  0
   38.7180   36.4060   30.8060 C   0  0  0  0  0  0  0  0  0  0  0  0
   38.9360   35.7390   29.6150 O   0  0  0  0  0  0  0  0  0  0  0  0
   38.0920   34.7440   29.1790 C   0  0  0  0  0  0  0  0  0  0  0  0
   37.1140   34.2690   29.9770 C   0  0  0  0  0  0  0  0  0  0  0  0
   36.8780   34.8100   31.3160 C   0  0  0  0  0  0  0  0  0  0  0  0
   36.0230   34.3170   32.0490 O   0  0  0  0  0  0  0  0  0  0  0  0
   37.7280   35.9600   31.7180 C   0  0  0  0  0  0  0  0  0  0  0  0
   37.5740   36.6130   32.9680 C   0  0  0  0  0  0  0  0  0  0  0  0
   36.6740   36.2030   33.9140 O   0  0  0  0  0  0  0  0  0  0  0  0
   38.3610   37.7340   33.2640 C   0  0  0  0  0  0  0  0  0  0  0  0
   39.3050   38.2150   32.3430 C   0  0  0  0  0  0  0  0  0  0  0  0
   39.9790   39.3500   32.6840 O   0  0  0  0  0  0  0  0  0  0  0  0
   38.4190   34.1050   27.8830 C   0  0  0  0  0  0  0  0  0  0  0  0
   38.8880   34.8460   26.7650 C   0  0  0  0  0  0  0  0  0  0  0  0
   39.1250   36.5570   26.8290 Cl  0  0  0  0  0  0  0  0  0  0  0  0
   39.1720   34.1840   25.5520 C   0  0  0  0  0  0  0  0  0  0  0  0
   39.0040   32.7910   25.4390 C   0  0  0  0  0  0  0  0  0  0  0  0
   38.5460   32.0540   26.5440 C   0  0  0  0  0  0  0  0  0  0  0  0
   38.2520   32.7060   27.7540 C   0  0  0  0  0  0  0  0  0  0  0  0
   42.4200   38.8060   31.5560 O   0  0  0  0  0  0  0  0  0  0  0  0
  2  1  1  6
  2  3  1  0
  2  7  1  0
  3  4  1  0
  4  5  1  0
  5  6  1  0
  5  8  1  1
  6  7  1  0
  6 28  1  1
  8  9  2  0
  8 19  1  0
  9 10  1  0
  9 15  1  0
 10 11  1  0
 11 12  2  0
 11 21  1  0
 12 13  1  0
 13 14  2  0
 13 15  1  0
 15 16  2  0
 16 17  1  0
 16 18  1  0
 18 19  2  0
 19 20  1  0
 21 22  2  0
 21 27  1  0
 22 23  1  0
 22 24  1  0
 24 25  2  0
 25 26  1  0
 26 27  2  0
M  CHG  1   2   1
M  END
