
     RDKit          3D

 26 28  0  0  1  0  0  0  0  0999 V2000
   13.6250  -53.3110   53.0910 S   0  0  0  0  0  0  0  0  0  0  0  0
   15.4060  -53.3870   53.2490 C   0  0  0  0  0  0  0  0  0  0  0  0
   16.0440  -52.8320   54.3780 C   0  0  0  0  0  0  0  0  0  0  0  0
   17.4460  -52.9110   54.5050 C   0  0  0  0  0  0  0  0  0  0  0  0
   18.2190  -53.5200   53.4890 C   0  0  0  0  0  0  0  0  0  0  0  0
   17.5630  -54.0710   52.3630 C   0  0  0  0  0  0  0  0  0  0  0  0
   16.1630  -54.0090   52.2390 C   0  0  0  0  0  0  0  0  0  0  0  0
   19.6340  -53.6190   53.5860 N   0  0  0  0  0  0  0  0  0  0  0  0
   20.5930  -52.7480   54.1000 C   0  0  0  0  0  0  0  0  0  0  0  0
   20.3280  -51.4330   54.6810 C   0  0  0  0  0  0  0  0  0  0  0  0
   19.4760  -50.5000   54.0530 C   0  0  0  0  0  0  0  0  0  0  0  0
   19.3310  -49.1980   54.5710 C   0  0  0  0  0  0  0  0  0  0  0  0
   20.0570  -48.8110   55.7160 C   0  0  0  0  0  0  0  0  0  0  0  0
   20.0010  -47.3870   56.2220 C   0  0  0  0  0  0  0  0  0  0  0  0
   20.8820  -49.7450   56.3690 C   0  0  0  0  0  0  0  0  0  0  0  0
   21.0160  -51.0460   55.8520 C   0  0  0  0  0  0  0  0  0  0  0  0
   21.8170  -53.3330   53.9270 C   0  0  0  0  0  0  0  0  0  0  0  0
   21.5310  -54.5650   53.2810 C   0  0  0  0  0  0  0  0  0  0  0  0
   22.4930  -55.6200   52.8060 C   0  0  0  0  0  0  0  0  0  0  0  0
   23.7080  -55.3850   53.2970 F   0  0  0  0  0  0  0  0  0  0  0  0
   22.0980  -56.8270   53.2090 F   0  0  0  0  0  0  0  0  0  0  0  0
   22.5550  -55.6040   51.4740 F   0  0  0  0  0  0  0  0  0  0  0  0
   20.2350  -54.7240   53.0810 N   0  0  0  0  0  0  0  0  0  0  0  0
   13.1450  -54.8180   53.7480 N   0  0  0  0  0  0  0  0  0  0  0  0
   13.2680  -53.3170   51.6630 O   0  0  0  0  0  0  0  0  0  0  0  0
   13.1170  -52.2660   53.9890 O   0  0  0  0  0  0  0  0  0  0  0  0
  1  2  1  0
  1 24  1  0
  1 25  2  0
  1 26  2  0
  2  3  2  0
  2  7  1  0
  3  4  1  0
  4  5  2  0
  5  6  1  0
  5  8  1  0
  6  7  2  0
  8  9  1  0
  8 23  1  0
  9 10  1  0
  9 17  2  0
 10 11  2  0
 10 16  1  0
 11 12  1  0
 12 13  2  0
 13 14  1  0
 13 15  1  0
 15 16  2  0
 17 18  1  0
 18 19  1  0
 18 23  2  0
 19 20  1  0
 19 21  1  0
 19 22  1  0
M  END
