
     RDKit          3D

 26 30  0  0  1  0  0  0  0  0999 V2000
   19.9110   73.9230   20.3210 C   0  0  2  0  0  0  0  0  0  0  0  0
   17.4550   73.8190   20.6580 C   0  0  0  0  0  0  0  0  0  0  0  0
   18.7350   73.0560   22.4260 C   0  0  0  0  0  0  0  0  0  0  0  0
   18.6580   70.3950   19.0760 C   0  0  1  0  0  0  0  0  0  0  0  0
   19.7210   70.1730   17.9790 C   0  0  0  0  0  0  0  0  0  0  0  0
   19.5070   69.4480   16.8590 C   0  0  0  0  0  0  0  0  0  0  0  0
   18.2380   68.7500   16.6110 C   0  0  0  0  0  0  0  0  0  0  0  0
   18.9920   69.4750   20.2750 C   0  0  0  0  0  0  0  0  0  0  0  0
   20.5760   75.7680   21.7420 C   0  0  0  0  0  0  0  0  0  0  0  0
   19.0270   75.6180   21.7860 C   0  0  2  0  0  0  0  0  0  0  0  0
   18.3920   76.0590   23.1150 C   0  0  0  0  0  0  0  0  0  0  0  0
   16.9200   76.4480   23.1430 C   0  0  0  0  0  0  0  0  0  0  0  0
   21.1350   74.5570   20.9800 C   0  0  0  0  0  0  0  0  0  0  0  0
   18.7730   74.1550   21.3430 C   0  0  1  0  0  0  0  0  0  0  0  0
   20.0430   72.4520   19.8490 C   0  0  1  0  0  0  0  0  0  0  0  0
   18.6380   71.8960   19.4990 C   0  0  2  0  0  0  0  0  0  0  0  0
   17.5930   72.2890   20.5960 C   0  0  1  0  0  0  0  0  0  0  0  0
   18.0730   72.0150   21.9090 O   0  0  0  0  0  0  0  0  0  0  0  0
   19.2220   73.1310   23.5510 O   0  0  0  0  0  0  0  0  0  0  0  0
   17.9860   68.1760   15.5530 O   0  0  0  0  0  0  0  0  0  0  0  0
   17.2050   68.7380   17.7310 C   0  0  0  0  0  0  0  0  0  0  0  0
   17.2530   70.0470   18.5140 C   0  0  0  0  0  0  0  0  0  0  0  0
   21.0850   70.8050   18.2320 C   0  0  0  0  0  0  0  0  0  0  0  0
   20.9790   72.2790   18.6440 C   0  0  0  0  0  0  0  0  0  0  0  0
   19.0610   76.1480   24.1340 O   0  0  0  0  0  0  0  0  0  0  0  0
   16.4160   76.3300   24.4540 O   0  0  0  0  0  0  0  0  0  0  0  0
  1 13  1  1
  1 14  1  0
  1 15  1  0
  2 14  1  0
  2 17  1  0
 14  3  1  1
  3 19  2  0
  3 18  1  0
  4  5  1  0
  4  8  1  1
  4 16  1  0
  4 22  1  0
  5  6  2  0
  5 23  1  0
  6  7  1  0
  7 20  2  0
  7 21  1  0
  9 10  1  0
  9 13  1  0
 10 11  1  1
 10 14  1  0
 11 12  1  0
 11 25  2  0
 12 26  1  0
 15 16  1  0
 15 24  1  6
 16 17  1  1
 17 18  1  1
 21 22  1  0
 23 24  1  0
M  END
