
     RDKit          3D

 30 32  0  0  1  0  0  0  0  0999 V2000
    0.3590   32.8980    8.1120 C   0  0  0  0  0  0  0  0  0  0  0  0
   -0.5600   32.3710    8.9080 N   0  0  0  0  0  0  0  0  0  0  0  0
   -0.4530   31.0590    9.1720 C   0  0  0  0  0  0  0  0  0  0  0  0
    0.5770   30.2680    8.6040 C   0  0  0  0  0  0  0  0  0  0  0  0
    1.4880   30.9470    7.7560 C   0  0  0  0  0  0  0  0  0  0  0  0
    1.3570   32.2650    7.5020 N   0  0  0  0  0  0  0  0  0  0  0  0
   -1.4730   30.5760    9.9920 N   0  0  0  0  0  0  0  0  0  0  0  0
   -1.4860   29.4910   10.8750 C   0  0  0  0  0  0  0  0  0  0  0  0
   -2.7290   28.8730   11.1120 C   0  0  0  0  0  0  0  0  0  0  0  0
   -2.8270   27.7780   11.9900 C   0  0  0  0  0  0  0  0  0  0  0  0
   -1.6880   27.3210   12.6750 C   0  0  0  0  0  0  0  0  0  0  0  0
   -0.4510   27.9610   12.4760 C   0  0  0  0  0  0  0  0  0  0  0  0
   -0.3460   29.0430   11.5810 C   0  0  0  0  0  0  0  0  0  0  0  0
    2.5680   30.3670    7.0820 N   0  0  0  0  0  0  0  0  0  0  0  0
    3.1880   29.1180    7.1820 C   0  0  0  0  0  0  0  0  0  0  0  0
    3.2330   28.3350    8.3570 C   0  0  0  0  0  0  0  0  0  0  0  0
    3.8830   27.0810    8.3410 C   0  0  0  0  0  0  0  0  0  0  0  0
    4.5060   26.6090    7.1590 C   0  0  0  0  0  0  0  0  0  0  0  0
    4.5170   27.4270    6.0190 C   0  0  0  0  0  0  0  0  0  0  0  0
    3.8600   28.6640    6.0300 C   0  0  0  0  0  0  0  0  0  0  0  0
    5.1270   25.3920    7.0360 O   0  0  0  0  0  0  0  0  0  0  0  0
    4.5850   24.2970    7.7530 C   0  0  0  0  0  0  0  0  0  0  0  0
    5.2700   23.0160    7.2350 C   0  0  2  0  0  0  0  0  0  0  0  0
    4.5650   21.7230    7.7050 C   0  0  0  0  0  0  0  0  0  0  0  0
    5.4270   20.5100    7.6320 N   0  0  0  0  0  0  0  0  0  0  0  0
    5.8970   20.1710    6.2680 C   0  0  0  0  0  0  0  0  0  0  0  0
    4.8100   19.3460    8.3050 C   0  0  0  0  0  0  0  0  0  0  0  0
    6.5880   23.0130    7.7330 O   0  0  0  0  0  0  0  0  0  0  0  0
   -3.8360   29.3280   10.4790 F   0  0  0  0  0  0  0  0  0  0  0  0
    0.8430   29.6680   11.4440 F   0  0  0  0  0  0  0  0  0  0  0  0
  1  2  2  0
  1  6  1  0
  2  3  1  0
  3  4  2  0
  3  7  1  0
  4  5  1  0
  5  6  2  0
  5 14  1  0
  7  8  1  0
  8  9  2  0
  8 13  1  0
  9 10  1  0
  9 29  1  0
 10 11  2  0
 11 12  1  0
 12 13  2  0
 13 30  1  0
 14 15  1  0
 15 16  2  0
 15 20  1  0
 16 17  1  0
 17 18  2  0
 18 19  1  0
 18 21  1  0
 19 20  2  0
 21 22  1  0
 22 23  1  0
 23 24  1  0
 23 28  1  1
 24 25  1  0
 25 26  1  0
 25 27  1  0
M  CHG  1  25   1
M  END
