
     RDKit          3D

 22 24  0  0  1  0  0  0  0  0999 V2000
   30.4150   -0.9070  -77.5980 C   0  0  0  0  0  0  0  0  0  0  0  0
   36.7360   -8.1450  -79.4900 C   0  0  0  0  0  0  0  0  0  0  0  0
   35.3650   -8.2250  -79.1610 C   0  0  0  0  0  0  0  0  0  0  0  0
   36.7120   -5.7070  -79.1730 C   0  0  0  0  0  0  0  0  0  0  0  0
   34.1590   -1.0030  -77.8690 C   0  0  0  0  0  0  0  0  0  0  0  0
   37.4090   -6.8980  -79.4780 C   0  0  0  0  0  0  0  0  0  0  0  0
   35.3420   -5.8040  -78.8650 C   0  0  0  0  0  0  0  0  0  0  0  0
   34.3490   -4.7920  -78.5150 C   0  0  0  0  0  0  0  0  0  0  0  0
   33.0890   -5.5250  -78.3280 C   0  0  0  0  0  0  0  0  0  0  0  0
   32.7680    1.2110  -77.4440 C   0  0  0  0  0  0  0  0  0  0  0  0
   35.5730   -0.4760  -77.8840 C   0  0  0  0  0  0  0  0  0  0  0  0
   34.5800   -3.4680  -78.3800 C   0  0  0  0  0  0  0  0  0  0  0  0
   31.8910   -1.1030  -77.7260 C   0  0  0  0  0  0  0  0  0  0  0  0
   34.7020   -7.0290  -78.8500 C   0  0  0  0  0  0  0  0  0  0  0  0
   33.7870   -2.3080  -78.0740 C   0  0  0  0  0  0  0  0  0  0  0  0
   32.9580   -0.2430  -77.6630 C   0  0  0  0  0  0  0  0  0  0  0  0
   32.4180   -2.3530  -77.9550 N   0  0  0  0  0  0  0  0  0  0  0  0
   33.3660   -6.8290  -78.5040 N   0  0  0  0  0  0  0  0  0  0  0  0
   33.6710    1.8220  -76.6750 N   0  0  0  0  0  0  0  0  0  0  0  0
   31.9690   -5.0950  -78.0670 O   0  0  0  0  0  0  0  0  0  0  0  0
   31.8080    1.8230  -77.9090 O   0  0  0  0  0  0  0  0  0  0  0  0
   38.7300   -6.8480  -79.7660 F   0  0  0  0  0  0  0  0  0  0  0  0
  1 13  1  0
  2  3  2  0
  2  6  1  0
  3 14  1  0
  4  6  2  0
  4  7  1  0
  5 11  1  0
  5 15  2  0
  5 16  1  0
  6 22  1  0
  7  8  1  0
  7 14  2  0
  8  9  1  0
  8 12  2  0
  9 18  1  0
  9 20  2  0
 10 16  1  0
 10 19  1  0
 10 21  2  0
 12 15  1  0
 13 16  2  0
 13 17  1  0
 14 18  1  0
 15 17  1  0
M  END
