
     RDKit          3D

 36 38  0  0  1  0  0  0  0  0999 V2000
  -31.4460   80.8560   48.5590 C   0  0  0  0  0  0  0  0  0  0  0  0
  -30.9380   80.7210   47.1140 C   0  0  2  0  0  0  0  0  0  0  0  0
  -29.6920   79.8090   47.0500 C   0  0  0  0  0  0  0  0  0  0  0  0
  -30.0110   78.3100   46.8970 C   0  0  0  0  0  0  0  0  0  0  0  0
  -30.5600   77.9610   45.5060 C   0  0  0  0  0  0  0  0  0  0  0  0
  -31.3730   77.0130   45.4490 O   0  0  0  0  0  0  0  0  0  0  0  0
  -30.1530   78.6150   44.5210 O   0  0  0  0  0  0  0  0  0  0  0  0
  -32.8410   82.0060   48.7530 S   0  0  0  0  0  0  0  0  0  0  0  0
  -34.2500   81.3290   47.9370 C   0  0  0  0  0  0  0  0  0  0  0  0
  -35.2970   82.1950   47.5720 C   0  0  0  0  0  0  0  0  0  0  0  0
  -36.4310   81.6930   46.9090 C   0  0  0  0  0  0  0  0  0  0  0  0
  -36.5400   80.3130   46.6270 C   0  0  0  0  0  0  0  0  0  0  0  0
  -35.4930   79.4490   47.0130 C   0  0  0  0  0  0  0  0  0  0  0  0
  -34.3510   79.9510   47.6610 C   0  0  0  0  0  0  0  0  0  0  0  0
  -37.7510   79.7520   45.8950 C   0  0  0  0  0  0  0  0  0  0  0  0
  -39.0350   80.5250   46.1450 C   0  0  0  0  0  0  0  0  0  0  0  0
  -39.5860   81.3300   45.1260 C   0  0  0  0  0  0  0  0  0  0  0  0
  -40.7450   82.0900   45.3720 C   0  0  0  0  0  0  0  0  0  0  0  0
  -41.3630   82.0370   46.6350 C   0  0  0  0  0  0  0  0  0  0  0  0
  -40.8260   81.2230   47.6510 C   0  0  0  0  0  0  0  0  0  0  0  0
  -39.6640   80.4670   47.4070 C   0  0  0  0  0  0  0  0  0  0  0  0
  -30.5890   82.0430   46.6100 N   0  0  0  0  0  0  0  0  0  0  0  0
  -30.9650   82.5570   45.4330 C   0  0  0  0  0  0  0  0  0  0  0  0
  -31.6230   81.9460   44.6010 O   0  0  0  0  0  0  0  0  0  0  0  0
  -30.5310   83.9880   45.1400 C   0  0  0  0  0  0  0  0  0  0  0  0
  -31.4090   85.0100   45.8730 C   0  0  0  0  0  0  0  0  0  0  0  0
  -32.8650   84.9850   45.3920 C   0  0  0  0  0  0  0  0  0  0  0  0
  -33.8180   85.7430   46.3120 C   0  0  0  0  0  0  0  0  0  0  0  0
  -35.2490   85.5970   45.8020 C   0  0  0  0  0  0  0  0  0  0  0  0
  -36.2670   86.4280   46.5760 C   0  0  0  0  0  0  0  0  0  0  0  0
  -36.7280   85.8080   47.8780 C   0  0  0  0  0  0  0  0  0  0  0  0
  -37.8700   84.9810   47.8890 C   0  0  0  0  0  0  0  0  0  0  0  0
  -38.3750   84.4880   49.1060 C   0  0  0  0  0  0  0  0  0  0  0  0
  -37.7330   84.8160   50.3140 C   0  0  0  0  0  0  0  0  0  0  0  0
  -36.5670   85.6050   50.3040 C   0  0  0  0  0  0  0  0  0  0  0  0
  -36.0610   86.0960   49.0850 C   0  0  0  0  0  0  0  0  0  0  0  0
  2  1  1  1
  1  8  1  0
  2  3  1  0
  2 22  1  0
  3  4  1  0
  4  5  1  0
  5  6  2  0
  5  7  1  0
  8  9  1  0
  9 10  2  0
  9 14  1  0
 10 11  1  0
 11 12  2  0
 12 13  1  0
 12 15  1  0
 13 14  2  0
 15 16  1  0
 16 17  2  0
 16 21  1  0
 17 18  1  0
 18 19  2  0
 19 20  1  0
 20 21  2  0
 22 23  1  0
 23 24  2  0
 23 25  1  0
 25 26  1  0
 26 27  1  0
 27 28  1  0
 28 29  1  0
 29 30  1  0
 30 31  1  0
 31 32  2  0
 31 36  1  0
 32 33  1  0
 33 34  2  0
 34 35  1  0
 35 36  2  0
M  CHG  1   7  -1
M  END
