
     RDKit          3D

 36 41  0  0  1  0  0  0  0  0999 V2000
   38.1850   31.5730    9.9960 C   0  0  0  0  0  0  0  0  0  0  0  0
   38.1670   28.3130   11.1950 O   0  0  0  0  0  0  0  0  0  0  0  0
   37.8190   32.8220    9.2830 C   0  0  0  0  0  0  0  0  0  0  0  0
   38.2510   33.1640    8.0500 C   0  0  0  0  0  0  0  0  0  0  0  0
   39.1590   32.3020    7.3660 C   0  0  0  0  0  0  0  0  0  0  0  0
   39.4800   31.0590    7.8070 C   0  0  0  0  0  0  0  0  0  0  0  0
   40.4840   30.2380    7.1150 C   0  0  0  0  0  0  0  0  0  0  0  0
   40.8900   29.0710    7.6620 C   0  0  0  0  0  0  0  0  0  0  0  0
   40.4190   28.5020    8.9940 C   0  0  2  0  0  0  0  0  0  0  0  0
   39.7810   29.6190    9.8600 C   0  0  1  0  0  0  0  0  0  0  0  0
   38.7620   30.4770    9.0520 C   0  0  1  0  0  0  0  0  0  0  0  0
   39.3250   29.1090   11.2630 C   0  0  2  0  0  0  0  0  0  0  0  0
   40.4450   28.3550   12.0090 C   0  0  0  0  0  0  0  0  0  0  0  0
   41.1120   27.2400   11.1540 C   0  0  1  0  0  0  0  0  0  0  0  0
   41.5590   27.8520    9.8110 C   0  0  1  0  0  0  0  0  0  0  0  0
   42.4200   26.7530    9.1870 C   0  0  0  0  0  0  0  0  0  0  0  0
   43.1400   26.0980   10.3880 C   0  0  2  0  0  0  0  0  0  0  0  0
   42.4780   26.6900   11.6860 C   0  0  2  0  0  0  0  0  0  0  0  0
   40.1120   26.0520   10.9570 C   0  0  0  0  0  0  0  0  0  0  0  0
   37.5620   29.6560    8.5170 C   0  0  0  0  0  0  0  0  0  0  0  0
   42.3200   25.6910   12.8600 C   0  0  0  0  0  0  0  0  0  0  0  0
   42.0030   26.2490   14.2460 C   0  0  0  0  0  0  0  0  0  0  0  0
   37.6740   34.3670    7.6840 N   0  0  0  0  0  0  0  0  0  0  0  0
   43.2590   27.7840   12.1480 O   0  0  0  0  0  0  0  0  0  0  0  0
   42.4660   24.4800   12.7100 O   0  0  0  0  0  0  0  0  0  0  0  0
   40.9810   25.4960   14.8630 O   0  0  0  0  0  0  0  0  0  0  0  0
   37.0140   33.9190    9.6760 C   0  0  0  0  0  0  0  0  0  0  0  0
   36.9310   34.8340    8.7240 N   0  0  0  0  0  0  0  0  0  0  0  0
   37.7490   34.4720    5.2280 C   0  0  0  0  0  0  0  0  0  0  0  0
   37.7250   35.1080    6.4810 C   0  0  0  0  0  0  0  0  0  0  0  0
   37.6190   35.2240    4.0480 C   0  0  0  0  0  0  0  0  0  0  0  0
   37.5200   36.6270    4.1020 C   0  0  0  0  0  0  0  0  0  0  0  0
   37.6410   36.5120    6.5240 C   0  0  0  0  0  0  0  0  0  0  0  0
   37.5560   37.2750    5.3460 C   0  0  0  0  0  0  0  0  0  0  0  0
   41.0920   30.6490    5.7850 C   0  0  0  0  0  0  0  0  0  0  0  0
   44.6660   26.2510   10.2870 C   0  0  0  0  0  0  0  0  0  0  0  0
  1  3  1  0
  1 11  1  0
 12  2  1  6
  3  4  2  0
  3 27  1  0
  4  5  1  0
  4 23  1  0
  5  6  2  0
  6  7  1  0
  6 11  1  0
  7  8  2  0
  7 35  1  0
  9  8  1  6
  9 10  1  0
  9 15  1  0
 10 11  1  0
 10 12  1  1
 11 20  1  6
 12 13  1  0
 13 14  1  0
 14 15  1  0
 14 18  1  0
 14 19  1  6
 15 16  1  6
 16 17  1  0
 17 18  1  0
 17 36  1  1
 18 21  1  0
 18 24  1  1
 21 22  1  0
 21 25  2  0
 22 26  1  0
 23 28  1  0
 23 30  1  0
 27 28  2  0
 29 30  2  0
 29 31  1  0
 30 33  1  0
 31 32  2  0
 32 34  1  0
 33 34  2  0
M  END
