
     RDKit          3D

 25 26  0  0  1  0  0  0  0  0999 V2000
   33.8720   -9.5340   65.0200 C   0  0  0  0  0  0  0  0  0  0  0  0
   32.6380   -9.2170   64.4190 C   0  0  0  0  0  0  0  0  0  0  0  0
   31.5290  -10.0800   64.5850 C   0  0  0  0  0  0  0  0  0  0  0  0
   31.6720  -11.2520   65.3600 C   0  0  0  0  0  0  0  0  0  0  0  0
   32.9150  -11.5970   65.9270 C   0  0  0  0  0  0  0  0  0  0  0  0
   34.0080  -10.7140   65.7710 C   0  0  0  0  0  0  0  0  0  0  0  0
   33.0830  -12.9230   66.6130 C   0  0  0  0  0  0  0  0  0  0  0  0
   32.5250   -8.0470   63.6190 N   0  0  0  0  0  0  0  0  0  0  0  0
   30.3290   -9.7550   63.9370 N   0  0  0  0  0  0  0  0  0  0  0  0
   29.1260  -10.5620   63.9960 C   0  0  0  0  0  0  0  0  0  0  0  0
   29.3060  -11.8420   63.1570 C   0  0  0  0  0  0  0  0  0  0  0  0
   28.1540  -12.8270   63.3350 C   0  0  0  0  0  0  0  0  0  0  0  0
   27.9440   -9.7030   63.5030 C   0  0  0  0  0  0  0  0  0  0  0  0
   27.6850   -8.4460   64.3480 C   0  0  0  0  0  0  0  0  0  0  0  0
   33.0240   -7.9520   62.2410 C   0  0  0  0  0  0  0  0  0  0  0  0
   32.1580   -6.8240   61.6510 C   0  0  0  0  0  0  0  0  0  0  0  0
   31.7710   -5.9490   62.8370 C   0  0  0  0  0  0  0  0  0  0  0  0
   31.8460   -6.9430   63.9800 C   0  0  0  0  0  0  0  0  0  0  0  0
   31.3260   -6.7280   65.0740 O   0  0  0  0  0  0  0  0  0  0  0  0
   32.8860   -9.2740   61.4390 C   0  0  0  0  0  0  0  0  0  0  0  0
   31.5570   -9.6350   61.1270 O   0  0  0  0  0  0  0  0  0  0  0  0
   34.5320   -7.5630   62.2370 C   0  0  0  0  0  0  0  0  0  0  0  0
   34.9610   -6.7690   63.3260 O   0  0  0  0  0  0  0  0  0  0  0  0
   32.2220  -13.8170   66.4410 O   0  0  0  0  0  0  0  0  0  0  0  0
   34.1110  -13.1210   67.2950 O   0  0  0  0  0  0  0  0  0  0  0  0
  1  2  2  0
  1  6  1  0
  2  3  1  0
  2  8  1  0
  3  4  2  0
  3  9  1  0
  4  5  1  0
  5  6  2  0
  5  7  1  0
  7 24  1  0
  7 25  2  0
  8 15  1  0
  8 18  1  0
  9 10  1  0
 10 11  1  0
 10 13  1  0
 11 12  1  0
 13 14  1  0
 15 16  1  0
 15 20  1  0
 15 22  1  0
 16 17  1  0
 17 18  1  0
 18 19  2  0
 20 21  1  0
 22 23  1  0
M  CHG  1  24  -1
M  END
