
     RDKit          3D

 20 21  0  0  1  0  0  0  0  0999 V2000
    1.2140    0.3070   51.4780 C   0  0  0  0  0  0  0  0  0  0  0  0
    3.3960    8.1440   53.2060 N   0  0  0  0  0  0  0  0  0  0  0  0
    3.0580    4.6230   50.6630 O   0  0  0  0  0  0  0  0  0  0  0  0
    1.9360    0.8920   52.7100 C   0  0  0  0  0  0  0  0  0  0  0  0
    3.5730    8.1770   50.4480 O   0  0  0  0  0  0  0  0  0  0  0  0
    2.7240    2.1350   52.2290 C   0  0  0  0  0  0  0  0  0  0  0  0
    2.0900    2.4590   50.9030 C   0  0  0  0  0  0  0  0  0  0  0  0
    1.2590    1.4330   50.4790 C   0  0  0  0  0  0  0  0  0  0  0  0
    0.5620    1.5190   49.2630 C   0  0  0  0  0  0  0  0  0  0  0  0
   -0.3450    0.4050   48.8110 C   0  0  0  0  0  0  0  0  0  0  0  0
    0.7200    2.6820   48.4790 C   0  0  0  0  0  0  0  0  0  0  0  0
    1.5520    3.7340   48.9190 C   0  0  0  0  0  0  0  0  0  0  0  0
    2.2500    3.6380   50.1520 C   0  0  0  0  0  0  0  0  0  0  0  0
    2.9660    5.9100   50.0780 C   0  0  0  0  0  0  0  0  0  0  0  0
    3.5770    6.9090   51.0640 C   0  0  2  0  0  0  0  0  0  0  0  0
    2.9200    6.9450   52.4730 C   0  0  2  0  0  0  0  0  0  0  0  0
    1.3800    6.8390   52.4910 C   0  0  0  0  0  0  0  0  0  0  0  0
    3.1670    8.1810   54.6670 C   0  0  0  0  0  0  0  0  0  0  0  0
    4.4440    8.6540   55.3750 C   0  0  0  0  0  0  0  0  0  0  0  0
    1.9890    9.1110   54.9980 C   0  0  0  0  0  0  0  0  0  0  0  0
  1  4  1  0
  1  8  1  0
  2 16  1  0
  2 18  1  0
  3 13  1  0
  3 14  1  0
  4  6  1  0
 15  5  1  6
  6  7  1  0
  7  8  2  0
  7 13  1  0
  8  9  1  0
  9 10  1  0
  9 11  2  0
 11 12  1  0
 12 13  2  0
 14 15  1  0
 15 16  1  0
 16 17  1  6
 18 19  1  0
 18 20  1  0
M  CHG  1   2   1
M  END
