
     RDKit          3D

 33 37  0  0  1  0  0  0  0  0999 V2000
   14.7680   40.0870   97.2080 C   0  0  0  0  0  0  0  0  0  0  0  0
   16.0790   40.1330   97.7160 C   0  0  0  0  0  0  0  0  0  0  0  0
   16.8690   38.9680   97.7280 C   0  0  0  0  0  0  0  0  0  0  0  0
   14.0710   33.3250   86.9100 N   0  0  0  0  0  0  0  0  0  0  0  0
   17.2210   36.5010   97.2910 C   0  0  0  0  0  0  0  0  0  0  0  0
   15.6350   33.6780   95.9530 C   0  0  0  0  0  0  0  0  0  0  0  0
   16.1360   34.1760   94.7110 C   0  0  0  0  0  0  0  0  0  0  0  0
   16.8720   35.3400   95.0490 C   0  0  0  0  0  0  0  0  0  0  0  0
   17.5110   36.1240   94.0760 C   0  0  0  0  0  0  0  0  0  0  0  0
   17.4450   35.7370   92.7280 C   0  0  0  0  0  0  0  0  0  0  0  0
   16.6950   34.6060   92.3550 C   0  0  0  0  0  0  0  0  0  0  0  0
   16.0560   33.8240   93.3450 C   0  0  0  0  0  0  0  0  0  0  0  0
   14.1810   33.6760   88.2510 C   0  0  0  0  0  0  0  0  0  0  0  0
   15.4390   33.8220   88.8810 C   0  0  0  0  0  0  0  0  0  0  0  0
   16.7400   33.7140   88.0980 C   0  0  0  0  0  0  0  0  0  0  0  0
   19.5600   32.0250   84.8990 C   0  0  0  0  0  0  0  0  0  0  0  0
   18.2270   31.8890   85.6520 C   0  0  0  0  0  0  0  0  0  0  0  0
   19.4040   31.5960   87.7870 C   0  0  0  0  0  0  0  0  0  0  0  0
   20.6810   31.2660   85.6230 C   0  0  0  0  0  0  0  0  0  0  0  0
   16.3510   37.7510   97.2370 C   0  0  0  0  0  0  0  0  0  0  0  0
   15.0320   37.7190   96.7220 C   0  0  0  0  0  0  0  0  0  0  0  0
   14.2500   38.8850   96.6970 C   0  0  0  0  0  0  0  0  0  0  0  0
   13.0000   38.8420   96.1830 F   0  0  0  0  0  0  0  0  0  0  0  0
   16.7370   35.4410   96.4240 N   0  0  0  0  0  0  0  0  0  0  0  0
   15.9950   34.4350   96.9600 N   0  0  0  0  0  0  0  0  0  0  0  0
   16.5920   34.2910   90.9960 N   0  0  0  0  0  0  0  0  0  0  0  0
   13.0240   33.8840   88.9090 N   0  0  0  0  0  0  0  0  0  0  0  0
   15.4070   34.1380   90.2620 C   0  0  0  0  0  0  0  0  0  0  0  0
   14.2370   34.3520   90.9020 N   0  0  0  0  0  0  0  0  0  0  0  0
   13.1200   34.2310   90.1890 C   0  0  0  0  0  0  0  0  0  0  0  0
   17.1090   32.3450   87.7520 N   0  0  0  0  0  0  0  0  0  0  0  0
   18.3410   32.3050   87.0580 N   0  0  0  0  0  0  0  0  0  0  0  0
   20.7680   31.7070   87.0910 C   0  0  0  0  0  0  0  0  0  0  0  0
  1  2  2  0
  1 22  1  0
  2  3  1  0
  3 20  2  0
  4 13  1  0
  5 20  1  0
  5 24  1  0
  6  7  1  0
  6 25  2  0
  7  8  2  0
  7 12  1  0
  8  9  1  0
  8 24  1  0
  9 10  2  0
 10 11  1  0
 11 12  2  0
 11 26  1  0
 13 14  2  0
 13 27  1  0
 14 15  1  0
 14 28  1  0
 15 31  1  0
 16 17  1  0
 16 19  1  0
 17 32  1  0
 18 32  1  0
 18 33  1  0
 19 33  1  0
 20 21  1  0
 21 22  2  0
 22 23  1  0
 24 25  1  0
 26 28  1  0
 27 30  2  0
 28 29  2  0
 29 30  1  0
 31 32  1  0
M  END
