3bwm
     RDKit          3D

 14 14  0  0  0  0  0  0  0  0999 V2000
   -4.6100  -12.5510  -16.3290 C   0  0  0  0  0  0  0  0  0  0  0  0
   -5.1610  -12.7380  -15.0860 O   0  0  0  0  0  0  0  0  0  0  0  0
   -4.4380  -11.2420  -16.8160 C   0  0  0  0  0  0  0  0  0  0  0  0
   -4.8830  -10.2470  -15.9900 O   0  0  0  0  0  0  0  0  0  0  0  0
   -3.8250  -11.0170  -18.0860 C   0  0  0  0  0  0  0  0  0  0  0  0
   -3.5570   -9.7240  -18.6020 N   0  0  0  0  0  0  0  0  0  0  0  0
   -4.4450   -8.6940  -18.3060 O   0  0  0  0  0  0  0  0  0  0  0  0
   -2.8290   -9.6270  -19.7940 O   0  0  0  0  0  0  0  0  0  0  0  0
   -3.4270  -12.1530  -18.8350 C   0  0  0  0  0  0  0  0  0  0  0  0
   -3.6020  -13.4740  -18.3630 C   0  0  0  0  0  0  0  0  0  0  0  0
   -3.1600  -14.5650  -19.1410 N   0  0  0  0  0  0  0  0  0  0  0  0
   -3.1190  -14.3920  -20.5300 O   0  0  0  0  0  0  0  0  0  0  0  0
   -3.3390  -15.8520  -18.6270 O   0  0  0  0  0  0  0  0  0  0  0  0
   -4.1890  -13.6560  -17.0900 C   0  0  0  0  0  0  0  0  0  0  0  0
  1  2  1  0
  1  3  2  0
  1 14  1  0
  3  4  1  0
  3  5  1  0
  5  6  1  0
  5  9  2  0
  6  7  1  0
  6  8  2  0
  9 10  1  0
 10 11  1  0
 10 14  2  0
 11 12  1  0
 11 13  2  0
M  CHG  2   6   1  11   1
M  END
