
     RDKit          3D

 30 34  0  0  1  0  0  0  0  0999 V2000
   23.5040   35.3300   82.6890 C   0  0  0  0  0  0  0  0  0  0  0  0
   24.7610   35.1380   82.2420 N   0  0  0  0  0  0  0  0  0  0  0  0
   25.6750   36.0030   82.7630 C   0  0  0  0  0  0  0  0  0  0  0  0
   25.4380   37.0530   83.6850 C   0  0  0  0  0  0  0  0  0  0  0  0
   24.1010   37.1880   84.1400 C   0  0  0  0  0  0  0  0  0  0  0  0
   23.1250   36.3010   83.6320 C   0  0  0  0  0  0  0  0  0  0  0  0
   27.0160   35.9740   82.4570 O   0  0  0  0  0  0  0  0  0  0  0  0
   27.6280   36.9920   83.1430 C   0  0  0  0  0  0  0  0  0  0  0  0
   26.7060   37.7080   83.8820 C   0  0  0  0  0  0  0  0  0  0  0  0
   26.8360   38.8890   84.7290 C   0  0  0  0  0  0  0  0  0  0  0  0
   26.9830   40.1650   84.1450 C   0  0  0  0  0  0  0  0  0  0  0  0
   27.0960   41.3070   84.9620 C   0  0  0  0  0  0  0  0  0  0  0  0
   27.0590   41.1760   86.3640 C   0  0  0  0  0  0  0  0  0  0  0  0
   26.9100   39.9050   86.9500 C   0  0  0  0  0  0  0  0  0  0  0  0
   26.8030   38.7640   86.1330 C   0  0  0  0  0  0  0  0  0  0  0  0
   29.0840   37.0990   82.9860 C   0  0  0  0  0  0  0  0  0  0  0  0
   29.7790   36.2240   82.1140 C   0  0  0  0  0  0  0  0  0  0  0  0
   31.1760   36.3060   81.9630 C   0  0  0  0  0  0  0  0  0  0  0  0
   31.9070   37.2660   82.6840 C   0  0  0  0  0  0  0  0  0  0  0  0
   31.2360   38.1380   83.5590 C   0  0  0  0  0  0  0  0  0  0  0  0
   29.8390   38.0530   83.7070 C   0  0  0  0  0  0  0  0  0  0  0  0
   23.7720   38.1810   85.0710 N   0  0  0  0  0  0  0  0  0  0  0  0
   22.3880   38.5030   85.3770 C   0  0  0  0  0  0  0  0  0  0  0  0
   22.3020   39.6630   86.3810 C   0  0  0  0  0  0  0  0  0  0  0  0
   22.9300   40.8890   85.8880 N   0  0  0  0  0  0  0  0  0  0  0  0
   22.9490   41.8700   86.9770 C   0  0  0  0  0  0  0  0  0  0  0  0
   23.6400   43.1680   86.5190 C   0  0  0  0  0  0  0  0  0  0  0  0
   22.9340   43.7240   85.3510 N   0  0  0  0  0  0  0  0  0  0  0  0
   22.8620   42.7330   84.2620 C   0  0  0  0  0  0  0  0  0  0  0  0
   22.1780   41.4510   84.7620 C   0  0  0  0  0  0  0  0  0  0  0  0
  1  2  2  0
  1  6  1  0
  2  3  1  0
  3  4  2  0
  3  7  1  0
  4  5  1  0
  4  9  1  0
  5  6  2  0
  5 22  1  0
  7  8  1  0
  8  9  2  0
  8 16  1  0
  9 10  1  0
 10 11  2  0
 10 15  1  0
 11 12  1  0
 12 13  2  0
 13 14  1  0
 14 15  2  0
 16 17  2  0
 16 21  1  0
 17 18  1  0
 18 19  2  0
 19 20  1  0
 20 21  2  0
 22 23  1  0
 23 24  1  0
 24 25  1  0
 25 26  1  0
 25 30  1  0
 26 27  1  0
 27 28  1  0
 28 29  1  0
 29 30  1  0
M  CHG  1  28   1
M  END
