
     RDKit          3D

 33 35  0  0  1  0  0  0  0  0999 V2000
   11.3780   38.4700   30.6020 C   0  0  0  0  0  0  0  0  0  0  0  0
   12.8490   38.4270   30.3130 C   0  0  0  0  0  0  0  0  0  0  0  0
   13.7260   38.9570   31.2650 N   0  0  0  0  0  0  0  0  0  0  0  0
   15.0100   38.8800   30.9040 C   0  0  0  0  0  0  0  0  0  0  0  0
   15.2200   38.1570   29.3120 S   0  0  0  0  0  0  0  0  0  0  0  0
   13.4880   37.9560   29.1830 C   0  0  0  0  0  0  0  0  0  0  0  0
   13.0040   37.3920   27.9000 C   0  0  0  0  0  0  0  0  0  0  0  0
   13.7750   37.1930   26.9600 O   0  0  0  0  0  0  0  0  0  0  0  0
   11.6880   37.1430   27.8150 N   0  0  0  0  0  0  0  0  0  0  0  0
   10.9910   36.7480   26.5950 C   0  0  0  0  0  0  0  0  0  0  0  0
   10.6860   37.9130   25.6600 C   0  0  0  0  0  0  0  0  0  0  0  0
   10.4140   39.2040   26.1640 C   0  0  0  0  0  0  0  0  0  0  0  0
   10.1770   40.2760   25.2860 C   0  0  0  0  0  0  0  0  0  0  0  0
   10.2080   40.0800   23.8930 C   0  0  0  0  0  0  0  0  0  0  0  0
    9.9930   41.1730   23.0790 O   0  0  0  0  0  0  0  0  0  0  0  0
   11.0830   41.6610   22.2820 C   0  0  0  0  0  0  0  0  0  0  0  0
   10.6350   43.0460   21.7890 C   0  0  0  0  0  0  0  0  0  0  0  0
   12.3810   41.8100   23.1090 C   0  0  0  0  0  0  0  0  0  0  0  0
   11.2860   40.7810   21.0370 C   0  0  0  0  0  0  0  0  0  0  0  0
   12.4350   40.3660   20.7780 O   0  0  0  0  0  0  0  0  0  0  0  0
   10.2690   40.5060   20.3660 O   0  0  0  0  0  0  0  0  0  0  0  0
   10.4240   38.7780   23.3870 C   0  0  0  0  0  0  0  0  0  0  0  0
   10.6680   37.7040   24.2660 C   0  0  0  0  0  0  0  0  0  0  0  0
   16.1510   39.2840   31.7260 C   0  0  0  0  0  0  0  0  0  0  0  0
   17.4500   38.8110   31.4380 C   0  0  0  0  0  0  0  0  0  0  0  0
   18.5360   39.1500   32.2650 C   0  0  0  0  0  0  0  0  0  0  0  0
   18.3470   39.9820   33.3870 C   0  0  0  0  0  0  0  0  0  0  0  0
   17.0550   40.4770   33.6670 C   0  0  0  0  0  0  0  0  0  0  0  0
   15.9650   40.1300   32.8430 C   0  0  0  0  0  0  0  0  0  0  0  0
   19.5220   40.3170   34.2940 C   0  0  0  0  0  0  0  0  0  0  0  0
   19.4000   41.5410   34.8080 F   0  0  0  0  0  0  0  0  0  0  0  0
   20.6670   40.2540   33.6160 F   0  0  0  0  0  0  0  0  0  0  0  0
   19.5760   39.4340   35.2890 F   0  0  0  0  0  0  0  0  0  0  0  0
  1  2  1  0
  2  3  1  0
  2  6  2  0
  3  4  2  0
  4  5  1  0
  4 24  1  0
  5  6  1  0
  6  7  1  0
  7  8  2  0
  7  9  1  0
  9 10  1  0
 10 11  1  0
 11 12  2  0
 11 23  1  0
 12 13  1  0
 13 14  2  0
 14 15  1  0
 14 22  1  0
 15 16  1  0
 16 17  1  0
 16 18  1  0
 16 19  1  0
 19 20  1  0
 19 21  2  0
 22 23  2  0
 24 25  2  0
 24 29  1  0
 25 26  1  0
 26 27  2  0
 27 28  1  0
 27 30  1  0
 28 29  2  0
 30 31  1  0
 30 32  1  0
 30 33  1  0
M  CHG  1  20  -1
M  END
