
     RDKit          3D

 33 38  0  0  1  0  0  0  0  0999 V2000
   10.3580  -11.8780   23.9940 N   0  0  0  0  0  0  0  0  0  0  0  0
   11.1800  -10.8490   23.7650 C   0  0  0  0  0  0  0  0  0  0  0  0
   10.9280   -9.7150   24.4280 N   0  0  0  0  0  0  0  0  0  0  0  0
   12.2930  -10.9760   22.8230 C   0  0  0  0  0  0  0  0  0  0  0  0
   12.7830  -12.2570   22.4890 C   0  0  0  0  0  0  0  0  0  0  0  0
   13.8450  -12.4030   21.5860 C   0  0  0  0  0  0  0  0  0  0  0  0
   14.4500  -11.2660   21.0160 C   0  0  0  0  0  0  0  0  0  0  0  0
   13.9620   -9.9810   21.3400 C   0  0  0  0  0  0  0  0  0  0  0  0
   12.8840   -9.8350   22.2340 C   0  0  0  0  0  0  0  0  0  0  0  0
   15.5910  -11.4130   20.0210 C   0  0  2  0  0  0  0  0  0  0  0  0
   15.4210  -12.5200   19.0590 N   0  0  1  0  0  0  0  0  0  0  0  0
   14.4190  -12.2910   17.9950 C   0  0  0  0  0  0  0  0  0  0  0  0
   15.1530  -12.4810   16.6660 C   0  0  0  0  0  0  0  0  0  0  0  0
   16.6040  -12.1750   17.0160 C   0  0  0  0  0  0  0  0  0  0  0  0
   16.7410  -12.7390   18.4360 C   0  0  1  0  0  0  0  0  0  0  0  0
   17.7920  -12.0280   19.3220 C   0  0  2  0  0  0  0  0  0  0  0  0
   18.8960  -12.9490   19.8800 C   0  0  2  0  0  0  0  0  0  0  0  0
   18.3980  -13.3260   21.2020 N   0  0  0  0  0  0  0  0  0  0  0  0
   17.3260  -12.6190   21.5730 C   0  0  0  0  0  0  0  0  0  0  0  0
   16.6470  -12.8180   22.5770 O   0  0  0  0  0  0  0  0  0  0  0  0
   17.0240  -11.5300   20.5500 C   0  0  2  0  0  0  0  0  0  0  0  0
   18.8790  -14.5250   21.8880 C   0  0  0  0  0  0  0  0  0  0  0  0
   19.8840  -14.2080   22.9810 C   0  0  0  0  0  0  0  0  0  0  0  0
   19.4520  -13.7930   24.2690 C   0  0  0  0  0  0  0  0  0  0  0  0
   20.3890  -13.4630   25.2760 C   0  0  0  0  0  0  0  0  0  0  0  0
   21.7530  -13.5720   24.9560 C   0  0  0  0  0  0  0  0  0  0  0  0
   22.8360  -13.3180   25.7330 O   0  0  0  0  0  0  0  0  0  0  0  0
   23.9570  -13.5850   24.9290 C   0  0  0  0  0  0  0  0  0  0  0  0
   23.5280  -13.9870   23.6580 O   0  0  0  0  0  0  0  0  0  0  0  0
   22.1740  -13.9800   23.7080 C   0  0  0  0  0  0  0  0  0  0  0  0
   21.2630  -14.3140   22.6980 C   0  0  0  0  0  0  0  0  0  0  0  0
   20.2420  -12.2020   19.9500 C   0  0  0  0  0  0  0  0  0  0  0  0
   20.9100  -12.0840   18.5760 C   0  0  0  0  0  0  0  0  0  0  0  0
  1  2  2  0
  2  3  1  0
  2  4  1  0
  4  5  2  0
  4  9  1  0
  5  6  1  0
  6  7  2  0
  7  8  1  0
 10  7  1  1
  8  9  2  0
 10 11  1  0
 10 21  1  0
 11 12  1  6
 11 15  1  0
 12 13  1  0
 13 14  1  0
 15 14  1  6
 15 16  1  0
 16 17  1  1
 16 21  1  0
 17 18  1  0
 17 32  1  1
 18 19  1  0
 18 22  1  0
 19 20  2  0
 21 19  1  1
 22 23  1  0
 23 24  2  0
 23 31  1  0
 24 25  1  0
 25 26  2  0
 26 27  1  0
 26 30  1  0
 27 28  1  0
 28 29  1  0
 29 30  1  0
 30 31  2  0
 32 33  1  0
M  CHG  2   1   1  11   1
M  END
