
     RDKit          3D

 32 36  0  0  1  0  0  0  0  0999 V2000
   -0.6550   28.7490   64.2100 C   0  0  0  0  0  0  0  0  0  0  0  0
   -0.3000   29.7800   63.6370 O   0  0  0  0  0  0  0  0  0  0  0  0
    0.0190   28.3880   65.4230 N   0  0  0  0  0  0  0  0  0  0  0  0
    2.2470   28.5590   68.2360 N   0  0  0  0  0  0  0  0  0  0  0  0
    1.1020   26.6920   68.3880 C   0  0  0  0  0  0  0  0  0  0  0  0
    2.0770   27.4100   68.9750 N   0  0  0  0  0  0  0  0  0  0  0  0
    0.6910   25.4430   68.9110 N   0  0  0  0  0  0  0  0  0  0  0  0
   -0.4590   24.7750   68.7360 C   0  0  0  0  0  0  0  0  0  0  0  0
   -0.6030   23.5310   69.5730 C   0  0  0  0  0  0  0  0  0  0  0  0
   -1.3280   25.0760   67.9190 O   0  0  0  0  0  0  0  0  0  0  0  0
    0.0920   23.3730   70.7910 C   0  0  0  0  0  0  0  0  0  0  0  0
   -0.0520   22.2000   71.5570 C   0  0  0  0  0  0  0  0  0  0  0  0
   -1.6040   21.3220   69.9250 C   0  0  0  0  0  0  0  0  0  0  0  0
   -1.4720   22.5000   69.1660 C   0  0  0  0  0  0  0  0  0  0  0  0
    1.4010   28.5190   67.1650 C   0  0  0  0  0  0  0  0  0  0  0  0
    0.6920   27.4050   67.2310 C   0  0  0  0  0  0  0  0  0  0  0  0
   -0.1780   27.2260   66.1910 C   0  0  0  0  0  0  0  0  0  0  0  0
    1.0050   29.1520   66.0550 C   0  0  0  0  0  0  0  0  0  0  0  0
   -1.0260   19.9500   71.9130 N   0  0  0  0  0  0  0  0  0  0  0  0
   -1.6310   18.7670   71.3020 C   0  0  0  0  0  0  0  0  0  0  0  0
   -0.5830   18.0110   70.4610 C   0  0  0  0  0  0  0  0  0  0  0  0
    0.6050   17.6560   71.2840 N   0  0  0  0  0  0  0  0  0  0  0  0
    1.1620   18.8120   72.0360 C   0  0  0  0  0  0  0  0  0  0  0  0
    0.0620   19.5620   72.8120 C   0  0  0  0  0  0  0  0  0  0  0  0
    1.6350   16.9330   70.5070 C   0  0  0  0  0  0  0  0  0  0  0  0
   -0.8870   21.1340   71.1360 C   0  0  0  0  0  0  0  0  0  0  0  0
   -1.3190   25.0420   60.9610 C   0  0  0  0  0  0  0  0  0  0  0  0
   -0.1710   25.7850   60.9430 C   0  0  0  0  0  0  0  0  0  0  0  0
   -2.4510   25.6390   62.1360 S   0  0  0  0  0  0  0  0  0  0  0  0
   -0.1950   26.8580   61.8790 C   0  0  0  0  0  0  0  0  0  0  0  0
   -1.3630   26.9180   62.6040 C   0  0  0  0  0  0  0  0  0  0  0  0
   -1.7940   27.8880   63.6610 C   0  0  0  0  0  0  0  0  0  0  0  0
  1  2  2  0
  1  3  1  0
  1 32  1  0
  3 17  1  0
  3 18  1  0
  4  6  1  0
  4 15  1  0
  5  6  2  0
  5  7  1  0
  5 16  1  0
  7  8  1  0
  8  9  1  0
  8 10  2  0
  9 11  2  0
  9 14  1  0
 11 12  1  0
 12 26  2  0
 13 14  2  0
 13 26  1  0
 15 16  1  0
 15 18  2  0
 16 17  2  0
 19 20  1  0
 19 24  1  0
 19 26  1  0
 20 21  1  0
 21 22  1  0
 22 23  1  0
 22 25  1  0
 23 24  1  0
 27 28  2  0
 27 29  1  0
 28 30  1  0
 29 31  1  0
 30 31  2  0
 31 32  1  0
M  CHG  1  22   1
M  END
