
     RDKit          3D

 21 22  0  0  1  0  0  0  0  0999 V2000
   38.2560   15.4210  -36.8030 O   0  0  0  0  0  0  0  0  0  0  0  0
   37.5250   16.2240  -35.9100 C   0  0  1  0  0  0  0  0  0  0  0  0
   33.3930   20.7070  -30.4980 N   0  0  0  0  0  0  0  0  0  0  0  0
   36.7710   15.3760  -34.8650 C   0  0  0  0  0  0  0  0  0  0  0  0
   35.9990   14.2890  -35.5060 N   0  0  0  0  0  0  0  0  0  0  0  0
   34.9820   13.5770  -34.6920 C   0  0  0  0  0  0  0  0  0  0  0  0
   33.7620   14.4860  -34.4500 C   0  0  0  0  0  0  0  0  0  0  0  0
   35.5680   13.0950  -33.3470 C   0  0  0  0  0  0  0  0  0  0  0  0
   38.4940   17.2160  -35.2600 C   0  0  0  0  0  0  0  0  0  0  0  0
   37.6850   18.1000  -34.5150 O   0  0  0  0  0  0  0  0  0  0  0  0
   38.2850   18.9400  -33.6150 C   0  0  0  0  0  0  0  0  0  0  0  0
   39.6760   19.1890  -33.5020 C   0  0  0  0  0  0  0  0  0  0  0  0
   40.1630   20.0870  -32.5200 C   0  0  0  0  0  0  0  0  0  0  0  0
   39.2760   20.7370  -31.6280 C   0  0  0  0  0  0  0  0  0  0  0  0
   37.9010   20.4750  -31.7500 C   0  0  0  0  0  0  0  0  0  0  0  0
   37.4370   19.6070  -32.7250 C   0  0  0  0  0  0  0  0  0  0  0  0
   36.8600   20.9660  -30.9710 N   0  0  0  0  0  0  0  0  0  0  0  0
   35.7990   20.4230  -31.4260 C   0  0  0  0  0  0  0  0  0  0  0  0
   35.9560   19.5050  -32.6170 C   0  0  0  0  0  0  0  0  0  0  0  0
   34.4780   20.6040  -30.8850 C   0  0  0  0  0  0  0  0  0  0  0  0
   34.5310   12.3510  -35.5030 C   0  0  0  0  0  0  0  0  0  0  0  0
  2  1  1  6
  2  4  1  0
  2  9  1  0
  3 20  3  0
  4  5  1  0
  5  6  1  0
  6  7  1  0
  6  8  1  0
  6 21  1  0
  9 10  1  0
 10 11  1  0
 11 12  2  0
 11 16  1  0
 12 13  1  0
 13 14  2  0
 14 15  1  0
 15 16  2  0
 15 17  1  0
 16 19  1  0
 17 18  2  0
 18 19  1  0
 18 20  1  0
M  CHG  1   5   1
M  END
