
     RDKit          3D

 36 38  0  0  1  0  0  0  0  0999 V2000
  -29.7610   29.7200   10.1420 N   0  0  0  0  0  0  0  0  0  0  0  0
  -31.7020   29.6480   11.2290 N   0  0  0  0  0  0  0  0  0  0  0  0
  -33.7920   32.9890   13.0880 C   0  0  0  0  0  0  0  0  0  0  0  0
  -30.8430   28.9790   10.4730 C   0  0  0  0  0  0  0  0  0  0  0  0
  -29.0020   32.1660   10.6020 C   0  0  0  0  0  0  0  0  0  0  0  0
  -28.5920   29.2300    9.4240 C   0  0  0  0  0  0  0  0  0  0  0  0
  -27.6590   28.5200   10.4110 C   0  0  0  0  0  0  0  0  0  0  0  0
  -25.4150   27.4550   10.9520 C   0  0  0  0  0  0  0  0  0  0  0  0
  -28.9160   32.7400    9.1820 C   0  0  0  0  0  0  0  0  0  0  0  0
  -31.9030   25.8490    8.6320 C   0  0  0  0  0  0  0  0  0  0  0  0
  -33.9770   35.4970   13.3670 C   0  0  0  0  0  0  0  0  0  0  0  0
  -34.1160   36.7990   12.8510 C   0  0  0  0  0  0  0  0  0  0  0  0
  -30.7500   26.5800   11.0900 C   0  0  0  0  0  0  0  0  0  0  0  0
  -30.9970   25.2250   10.8080 C   0  0  0  0  0  0  0  0  0  0  0  0
  -34.0040   34.5930   11.1060 C   0  0  0  0  0  0  0  0  0  0  0  0
  -30.9790   32.4980   13.1720 O   0  0  0  0  0  0  0  0  0  0  0  0
  -31.6880   31.8900   12.3730 C   0  0  0  0  0  0  0  0  0  0  0  0
  -33.0120   32.0610   12.2760 N   0  0  0  0  0  0  0  0  0  0  0  0
  -33.9150   34.3870   12.5010 C   0  0  0  0  0  0  0  0  0  0  0  0
  -34.1500   35.8960   10.5900 C   0  0  0  0  0  0  0  0  0  0  0  0
  -34.2010   36.9990   11.4610 C   0  0  0  0  0  0  0  0  0  0  0  0
  -31.1290   30.8970   11.4230 C   0  0  0  0  0  0  0  0  0  0  0  0
  -29.9460   30.9880   10.7170 C   0  0  0  0  0  0  0  0  0  0  0  0
  -27.6110   31.9280   11.2000 C   0  0  0  0  0  0  0  0  0  0  0  0
  -31.0660   27.5770   10.1430 C   0  0  0  0  0  0  0  0  0  0  0  0
  -31.5830   24.8600    9.5830 C   0  0  0  0  0  0  0  0  0  0  0  0
  -31.8460   23.5570    9.3300 F   0  0  0  0  0  0  0  0  0  0  0  0
  -31.6460   27.2080    8.9120 C   0  0  0  0  0  0  0  0  0  0  0  0
  -26.2910   28.0860    9.8580 C   0  0  2  0  0  0  0  0  0  0  0  0
  -25.5560   29.2040    9.4110 O   0  0  0  0  0  0  0  0  0  0  0  0
  -26.0160   26.2130   11.6210 C   0  0  1  0  0  0  0  0  0  0  0  0
  -26.1420   25.1880   10.6590 O   0  0  0  0  0  0  0  0  0  0  0  0
  -25.1630   25.7620   12.8090 C   0  0  0  0  0  0  0  0  0  0  0  0
  -25.8330   24.6290   13.5750 C   0  0  0  0  0  0  0  0  0  0  0  0
  -25.3630   23.4840   13.4190 O   0  0  0  0  0  0  0  0  0  0  0  0
  -26.7980   24.9150   14.3160 O   0  0  0  0  0  0  0  0  0  0  0  0
  1  4  1  0
  1  6  1  0
  1 23  1  0
  2  4  2  0
  2 22  1  0
  3 18  1  0
  3 19  1  0
  4 25  1  0
  5  9  1  0
  5 23  1  0
  5 24  1  0
  6  7  1  0
  7 29  1  0
  8 29  1  0
  8 31  1  0
 10 26  2  0
 10 28  1  0
 11 12  2  0
 11 19  1  0
 12 21  1  0
 13 14  2  0
 13 25  1  0
 14 26  1  0
 15 19  2  0
 15 20  1  0
 16 17  2  0
 17 18  1  0
 17 22  1  0
 20 21  2  0
 22 23  2  0
 25 28  2  0
 26 27  1  0
 29 30  1  1
 31 32  1  6
 31 33  1  0
 33 34  1  0
 34 35  1  0
 34 36  2  0
M  CHG  1  35  -1
M  END
