
     RDKit          3D

 19 20  0  0  1  0  0  0  0  0999 V2000
   51.0830   -3.5250   23.4520 N   0  0  0  0  0  0  0  0  0  0  0  0
   51.2130   -3.9800   22.1410 C   0  0  0  0  0  0  0  0  0  0  0  0
   50.2550   -3.6140   21.1760 C   0  0  0  0  0  0  0  0  0  0  0  0
   52.3340   -4.7440   21.7590 C   0  0  0  0  0  0  0  0  0  0  0  0
   50.4570   -3.9560   19.8250 C   0  0  0  0  0  0  0  0  0  0  0  0
   52.5340   -5.0890   20.4110 C   0  0  0  0  0  0  0  0  0  0  0  0
   51.6050   -4.6730   19.4390 C   0  0  0  0  0  0  0  0  0  0  0  0
   51.8900   -5.0140   17.7740 Cl  0  0  0  0  0  0  0  0  0  0  0  0
   52.2420   -2.5080   24.2370 S   0  0  0  0  0  0  0  0  0  0  0  0
   52.2700   -1.0770   23.1830 C   0  0  0  0  0  0  0  0  0  0  0  0
   51.6730   -2.1350   25.5410 O   0  0  0  0  0  0  0  0  0  0  0  0
   53.5390   -3.1940   24.1370 O   0  0  0  0  0  0  0  0  0  0  0  0
   51.2430   -0.1940   22.9360 C   0  0  0  0  0  0  0  0  0  0  0  0
   53.4580   -0.7880   22.4490 C   0  0  0  0  0  0  0  0  0  0  0  0
   51.7510    1.0390   21.8030 S   0  0  0  0  0  0  0  0  0  0  0  0
   49.8430   -0.1190   23.3950 C   0  0  0  0  0  0  0  0  0  0  0  0
   53.3290    0.3260   21.6610 C   0  0  0  0  0  0  0  0  0  0  0  0
   49.3700   -1.0760   24.0410 O   0  0  0  0  0  0  0  0  0  0  0  0
   49.1590    0.8890   23.1090 O   0  0  0  0  0  0  0  0  0  0  0  0
  1  2  1  0
  1  9  1  0
  2  3  2  0
  2  4  1  0
  3  5  1  0
  4  6  2  0
  5  7  2  0
  6  7  1  0
  7  8  1  0
  9 10  1  0
  9 11  2  0
  9 12  2  0
 10 13  2  0
 10 14  1  0
 13 15  1  0
 13 16  1  0
 14 17  2  0
 15 17  1  0
 16 18  1  0
 16 19  2  0
M  CHG  1  18  -1
M  END
