
     RDKit          3D

 30 34  0  0  1  0  0  0  0  0999 V2000
    3.1820   -4.5050   18.5270 C   0  0  0  0  0  0  0  0  0  0  0  0
    2.7030   -5.5000   17.9910 O   0  0  0  0  0  0  0  0  0  0  0  0
    4.7990   -3.1380   21.6450 N   0  0  0  0  0  0  0  0  0  0  0  0
    3.0460   -3.3180   17.9040 N   0  0  0  0  0  0  0  0  0  0  0  0
    4.1840   -3.2900   20.4120 C   0  0  0  0  0  0  0  0  0  0  0  0
    3.9160   -2.0580   19.6920 C   0  0  0  0  0  0  0  0  0  0  0  0
    3.3950   -2.1020   18.4660 C   0  0  0  0  0  0  0  0  0  0  0  0
    6.0490   -2.4370   21.8780 C   0  0  0  0  0  0  0  0  0  0  0  0
    8.4490   -4.2350   24.2540 C   0  0  0  0  0  0  0  0  0  0  0  0
    7.4050   -3.4020   23.8040 C   0  0  0  0  0  0  0  0  0  0  0  0
    9.1540   -5.0050   23.3100 C   0  0  0  0  0  0  0  0  0  0  0  0
    7.1390   -3.3410   22.4210 C   0  0  0  0  0  0  0  0  0  0  0  0
    7.8100   -4.0800   21.5120 N   0  0  0  0  0  0  0  0  0  0  0  0
    8.7870   -4.9010   21.9550 C   0  0  0  0  0  0  0  0  0  0  0  0
    3.8740   -4.5050   19.8430 C   0  0  0  0  0  0  0  0  0  0  0  0
    6.1410  -12.3350   22.4740 C   0  0  0  0  0  0  0  0  0  0  0  0
    5.6930   -9.9730   21.6030 C   0  0  0  0  0  0  0  0  0  0  0  0
    5.0770   -9.2650   20.5380 C   0  0  0  0  0  0  0  0  0  0  0  0
    6.0150  -11.3490   21.5060 N   0  0  0  0  0  0  0  0  0  0  0  0
    6.3350  -11.9180   20.3370 C   0  0  0  0  0  0  0  0  0  0  0  0
    6.6340  -13.2070   20.4390 N   0  0  0  0  0  0  0  0  0  0  0  0
    6.5010  -13.4790   21.8010 C   0  0  0  0  0  0  0  0  0  0  0  0
    4.7890   -7.8860   20.6690 C   0  0  0  0  0  0  0  0  0  0  0  0
    4.7170   -5.9470   21.7180 N   0  0  0  0  0  0  0  0  0  0  0  0
    4.2370   -5.8160   20.4660 C   0  0  0  0  0  0  0  0  0  0  0  0
    4.2450   -6.9720   19.7810 N   0  0  0  0  0  0  0  0  0  0  0  0
    5.1100   -7.2530   21.8960 C   0  0  0  0  0  0  0  0  0  0  0  0
    5.7150   -7.9350   22.9580 C   0  0  0  0  0  0  0  0  0  0  0  0
    6.0050   -9.3020   22.8080 C   0  0  0  0  0  0  0  0  0  0  0  0
    6.0730   -7.1920   24.2240 C   0  0  0  0  0  0  0  0  0  0  0  0
  1  2  2  0
  1  4  1  0
  1 15  1  0
  3  5  1  0
  3  8  1  0
  4  7  1  0
  5  6  1  0
  5 15  2  0
  6  7  2  0
  8 12  1  0
  9 10  2  0
  9 11  1  0
 10 12  1  0
 11 14  2  0
 12 13  2  0
 13 14  1  0
 15 25  1  0
 16 19  1  0
 16 22  2  0
 17 18  2  0
 17 19  1  0
 17 29  1  0
 18 23  1  0
 19 20  1  0
 20 21  2  0
 21 22  1  0
 23 26  1  0
 23 27  2  0
 24 25  1  0
 24 27  1  0
 25 26  2  0
 27 28  1  0
 28 29  2  0
 28 30  1  0
M  END
