
     RDKit          3D

 23 25  0  0  1  0  0  0  0  0999 V2000
   -7.7030   -2.5840   20.8630 S   0  0  0  0  0  0  0  0  0  0  0  0
   -7.8790   -3.5590   22.2910 C   0  0  0  0  0  0  0  0  0  0  0  0
   -8.2540   -2.8130   23.3800 C   0  0  0  0  0  0  0  0  0  0  0  0
   -8.4430   -1.4590   23.0950 N   0  0  0  0  0  0  0  0  0  0  0  0
   -8.1940   -1.1790   21.8160 C   0  0  0  0  0  0  0  0  0  0  0  0
   -8.3780    0.1470   21.3570 N   0  0  0  0  0  0  0  0  0  0  0  0
   -8.1530    0.6060   20.1130 C   0  0  0  0  0  0  0  0  0  0  0  0
   -7.5600   -0.0420   19.2590 O   0  0  0  0  0  0  0  0  0  0  0  0
   -8.0370    2.8320   18.8130 C   0  0  0  0  0  0  0  0  0  0  0  0
   -8.6090    2.0190   19.8340 C   0  0  0  0  0  0  0  0  0  0  0  0
   -9.6890    2.5440   20.5750 C   0  0  0  0  0  0  0  0  0  0  0  0
  -10.1730    3.8420   20.3580 C   0  0  0  0  0  0  0  0  0  0  0  0
   -9.5920    4.6480   19.3550 C   0  0  0  0  0  0  0  0  0  0  0  0
  -10.0810    5.8730   19.0570 F   0  0  0  0  0  0  0  0  0  0  0  0
   -8.5260    4.1380   18.5940 C   0  0  0  0  0  0  0  0  0  0  0  0
  -11.5820    4.3240   21.3030 S   0  0  0  0  0  0  0  0  0  0  0  0
  -12.1600    7.0050   20.8070 N   0  0  0  0  0  0  0  0  0  0  0  0
  -11.4420    6.0730   21.4500 C   0  0  0  0  0  0  0  0  0  0  0  0
  -10.6000    6.7060   22.2670 N   0  0  0  0  0  0  0  0  0  0  0  0
  -10.7860    8.0580   22.1700 C   0  0  0  0  0  0  0  0  0  0  0  0
  -11.7920    8.2470   21.2560 C   0  0  0  0  0  0  0  0  0  0  0  0
  -13.1610    6.7110   19.7800 C   0  0  0  0  0  0  0  0  0  0  0  0
   -6.9980    2.3940   17.9890 N   0  0  0  0  0  0  0  0  0  0  0  0
  1  2  1  0
  1  5  1  0
  2  3  2  0
  3  4  1  0
  4  5  2  0
  5  6  1  0
  6  7  1  0
  7  8  2  0
  7 10  1  0
  9 10  2  0
  9 15  1  0
  9 23  1  0
 10 11  1  0
 11 12  2  0
 12 13  1  0
 12 16  1  0
 13 14  1  0
 13 15  2  0
 16 18  1  0
 17 18  1  0
 17 21  1  0
 17 22  1  0
 18 19  2  0
 19 20  1  0
 20 21  2  0
M  CHG  1  19   1
M  END
