1s3b
     RDKit          3D

 67 74  0  0  1  0  0  0  0  0999 V2000
   28.8640  125.7900    8.8950 P   0  0  2  0  0  0  0  0  0  0  0  0
   29.8850  126.2250    9.8740 O   0  0  0  0  0  0  0  0  0  0  0  0
   27.8550  124.7930    9.3070 O   0  0  0  0  0  0  0  0  0  0  0  0
   29.6530  125.1940    7.5210 O   0  0  0  0  0  0  0  0  0  0  0  0
   30.9110  125.6820    7.1070 C   0  0  0  0  0  0  0  0  0  0  0  0
   31.6540  124.5250    6.4400 C   0  0  1  0  0  0  0  0  0  0  0  0
   32.9240  124.9910    6.0210 O   0  0  0  0  0  0  0  0  0  0  0  0
   31.9330  123.3480    7.3870 C   0  0  1  0  0  0  0  0  0  0  0  0
   31.4440  122.1570    6.8030 O   0  0  0  0  0  0  0  0  0  0  0  0
   33.4480  123.3520    7.5640 C   0  0  1  0  0  0  0  0  0  0  0  0
   33.9850  122.0570    7.7580 O   0  0  0  0  0  0  0  0  0  0  0  0
   33.8840  124.0230    6.2670 C   0  0  2  0  0  0  0  0  0  0  0  0
   35.1770  124.7490    6.3770 N   0  0  0  0  0  0  0  0  0  0  0  0
   35.6820  125.4960    7.4190 C   0  0  0  0  0  0  0  0  0  0  0  0
   36.8390  126.0500    7.1880 N   0  0  0  0  0  0  0  0  0  0  0  0
   37.1370  125.6990    5.8790 C   0  0  0  0  0  0  0  0  0  0  0  0
   38.2100  125.9660    4.9870 C   0  0  0  0  0  0  0  0  0  0  0  0
   39.2890  126.6900    5.3100 N   0  0  0  0  0  0  0  0  0  0  0  0
   38.1480  125.4590    3.7380 N   0  0  0  0  0  0  0  0  0  0  0  0
   37.1000  124.7170    3.3730 C   0  0  0  0  0  0  0  0  0  0  0  0
   36.0290  124.3810    4.0940 N   0  0  0  0  0  0  0  0  0  0  0  0
   36.0890  124.8960    5.3550 C   0  0  0  0  0  0  0  0  0  0  0  0
   20.3770  125.6970   13.9470 N   0  0  0  0  0  0  0  0  0  0  0  0
   19.0040  125.5350   13.7860 C   0  0  0  0  0  0  0  0  0  0  0  0
   18.4230  125.9050   12.7740 O   0  0  0  0  0  0  0  0  0  0  0  0
   18.3280  124.9070   14.8170 N   0  0  0  0  0  0  0  0  0  0  0  0
   18.9170  124.4610   15.9950 C   0  0  0  0  0  0  0  0  0  0  0  0
   18.2400  123.8150   16.7840 O   0  0  0  0  0  0  0  0  0  0  0  0
   20.3570  124.7420   16.1340 C   0  0  0  0  0  0  0  0  0  0  0  0
   21.0320  124.3850   17.3070 N   0  0  0  0  0  0  0  0  0  0  0  0
   22.4070  124.0900   17.2080 C   0  0  0  0  0  0  0  0  0  0  0  0
   23.0510  123.2880   18.1750 C   0  0  0  0  0  0  0  0  0  0  0  0
   24.4130  122.9550   18.0490 C   0  0  0  0  0  0  0  0  0  0  0  0
   25.0430  122.0930   19.1270 C   0  0  0  0  0  0  0  0  0  0  0  0
   25.1410  123.4180   16.9260 C   0  0  0  0  0  0  0  0  0  0  0  0
   26.5820  123.0040   16.6630 C   0  0  0  0  0  0  0  0  0  0  0  0
   24.5020  124.2430   15.9780 C   0  0  0  0  0  0  0  0  0  0  0  0
   23.1330  124.5840   16.0990 C   0  0  0  0  0  0  0  0  0  0  0  0
   22.4250  125.3410   15.1330 N   0  0  0  0  0  0  0  0  0  0  0  0
   21.0340  125.2830   15.0890 C   0  0  0  0  0  0  0  0  0  0  0  0
   23.2060  126.1860   14.2390 C   0  0  0  0  0  0  0  0  0  0  0  0
   23.3320  125.6240   12.8080 C   0  0  2  0  0  0  0  0  0  0  0  0
   23.9510  124.3610   12.8880 O   0  0  0  0  0  0  0  0  0  0  0  0
   24.1790  126.5630   11.9250 C   0  0  2  0  0  0  0  0  0  0  0  0
   23.5810  127.8430   11.9540 O   0  0  0  0  0  0  0  0  0  0  0  0
   24.2900  126.1540   10.4370 C   0  0  2  0  0  0  0  0  0  0  0  0
   24.7770  124.8370   10.3450 O   0  0  0  0  0  0  0  0  0  0  0  0
   25.3230  127.0340    9.7310 C   0  0  0  0  0  0  0  0  0  0  0  0
   25.4570  126.6810    8.3750 O   0  0  0  0  0  0  0  0  0  0  0  0
   26.6510  127.4350    7.4460 P   0  0  1  0  0  0  0  0  0  0  0  0
   26.7690  126.7170    6.1580 O   0  0  0  0  0  0  0  0  0  0  0  0
   26.3800  128.8880    7.4600 O   0  0  0  0  0  0  0  0  0  0  0  0
   28.0600  127.1680    8.3460 O   0  0  0  0  0  0  0  0  0  0  0  0
   20.5450  124.8500   18.4750 C   0  0  0  0  0  0  0  0  0  0  0  0
   20.0080  125.4140   19.4090 C   0  0  0  0  0  0  0  0  0  0  0  0
   19.3200  126.2020   20.4330 C   0  0  0  0  0  0  0  0  0  0  0  0
   17.9520  125.7710   20.6680 N   0  0  0  0  0  0  0  0  0  0  0  0
   17.0720  126.0490   19.5350 C   0  0  0  0  0  0  0  0  0  0  0  0
   17.4690  126.2980   21.9490 C   0  0  2  0  0  0  0  0  0  0  0  0
   16.3260  125.4560   22.5610 C   0  0  0  0  0  0  0  0  0  0  0  0
   15.4140  126.4430   23.3200 C   0  0  0  0  0  0  0  0  0  0  0  0
   15.8350  127.7950   22.8250 C   0  0  0  0  0  0  0  0  0  0  0  0
   16.9600  127.7250   22.0120 C   0  0  0  0  0  0  0  0  0  0  0  0
   17.4870  128.8900   21.4210 C   0  0  0  0  0  0  0  0  0  0  0  0
   15.2170  129.0160   23.1300 C   0  0  0  0  0  0  0  0  0  0  0  0
   15.7270  130.1890   22.5350 C   0  0  0  0  0  0  0  0  0  0  0  0
   16.8410  130.1200   21.6680 C   0  0  0  0  0  0  0  0  0  0  0  0
  1  2  2  0
  1  3  1  1
  1  4  1  0
  1 53  1  0
  4  5  1  0
  6  5  1  1
  6  7  1  0
  6  8  1  0
  7 12  1  0
  8  9  1  6
  8 10  1  0
 10 11  1  6
 10 12  1  0
 12 13  1  1
 13 14  1  0
 13 22  1  0
 14 15  2  0
 15 16  1  0
 16 17  2  0
 16 22  1  0
 17 18  1  0
 17 19  1  0
 19 20  2  0
 20 21  1  0
 21 22  2  0
 23 24  1  0
 23 40  2  0
 24 25  2  0
 24 26  1  0
 26 27  1  0
 27 28  2  0
 27 29  1  0
 29 30  2  0
 29 40  1  0
 30 31  1  0
 30 54  1  0
 31 32  1  0
 31 38  2  0
 32 33  2  0
 33 34  1  0
 33 35  1  0
 35 36  1  0
 35 37  2  0
 37 38  1  0
 38 39  1  0
 39 40  1  0
 39 41  1  0
 41 42  1  0
 42 43  1  1
 42 44  1  0
 44 45  1  6
 44 46  1  0
 46 47  1  1
 46 48  1  0
 48 49  1  0
 49 50  1  0
 50 51  2  0
 50 52  1  6
 50 53  1  0
 54 55  3  0
 55 56  1  0
 56 57  1  0
 57 58  1  0
 59 57  1  6
 59 60  1  0
 59 63  1  0
 60 61  1  0
 61 62  1  0
 62 63  2  0
 62 65  1  0
 63 64  1  0
 64 67  2  0
 65 66  2  0
 66 67  1  0
M  CHG  4   3  -1  23   1  30   1  52  -1
M  END
