
     RDKit          3D

 34 38  0  0  1  0  0  0  0  0999 V2000
    8.5880   52.5230   16.7020 C   0  0  0  0  0  0  0  0  0  0  0  0
    7.2050   53.0480   16.7850 N   0  0  0  0  0  0  0  0  0  0  0  0
    6.4670   52.7890   15.5270 C   0  0  0  0  0  0  0  0  0  0  0  0
    7.1930   54.4770   17.1990 C   0  0  0  0  0  0  0  0  0  0  0  0
    5.7950   55.0440   17.5280 C   0  0  0  0  0  0  0  0  0  0  0  0
    5.1860   54.5340   18.8410 C   0  0  0  0  0  0  0  0  0  0  0  0
    6.0410   54.9290   19.9020 O   0  0  0  0  0  0  0  0  0  0  0  0
    5.6360   54.7270   21.2040 C   0  0  0  0  0  0  0  0  0  0  0  0
    4.3540   54.2510   21.5680 C   0  0  0  0  0  0  0  0  0  0  0  0
    6.5730   55.0270   22.2170 C   0  0  0  0  0  0  0  0  0  0  0  0
    7.8060   55.4950   21.8650 O   0  0  0  0  0  0  0  0  0  0  0  0
    6.2610   54.8500   23.5800 C   0  0  0  0  0  0  0  0  0  0  0  0
    4.9700   54.4090   23.9540 C   0  0  0  0  0  0  0  0  0  0  0  0
    4.0100   54.1200   22.9250 C   0  0  0  0  0  0  0  0  0  0  0  0
    2.7960   53.7310   23.5460 N   0  0  0  0  0  0  0  0  0  0  0  0
    1.5450   53.3370   22.9350 C   0  0  0  0  0  0  0  0  0  0  0  0
    3.0900   53.8180   24.8980 C   0  0  0  0  0  0  0  0  0  0  0  0
    2.2110   53.5520   25.9790 C   0  0  0  0  0  0  0  0  0  0  0  0
    4.3880   54.2020   25.1950 C   0  0  0  0  0  0  0  0  0  0  0  0
    4.8270   54.2900   26.5340 C   0  0  0  0  0  0  0  0  0  0  0  0
    6.1400   54.6060   27.1590 C   0  0  0  0  0  0  0  0  0  0  0  0
    7.1780   54.9240   26.5940 O   0  0  0  0  0  0  0  0  0  0  0  0
    5.9470   54.5040   28.4870 N   0  0  0  0  0  0  0  0  0  0  0  0
    4.6890   54.1840   28.8390 C   0  0  0  0  0  0  0  0  0  0  0  0
    4.2340   54.0510   29.9720 O   0  0  0  0  0  0  0  0  0  0  0  0
    3.9450   54.0370   27.5620 C   0  0  0  0  0  0  0  0  0  0  0  0
    2.5980   53.6950   27.3320 C   0  0  0  0  0  0  0  0  0  0  0  0
    1.6140   53.4550   28.3970 C   0  0  0  0  0  0  0  0  0  0  0  0
    1.0050   52.1850   28.4700 C   0  0  0  0  0  0  0  0  0  0  0  0
    0.0470   51.9060   29.4570 C   0  0  0  0  0  0  0  0  0  0  0  0
   -0.2780   52.8820   30.4090 C   0  0  0  0  0  0  0  0  0  0  0  0
    0.3050   54.1560   30.3440 C   0  0  0  0  0  0  0  0  0  0  0  0
    1.2260   54.4570   29.3250 C   0  0  0  0  0  0  0  0  0  0  0  0
    1.8340   56.0730   29.2350 Cl  0  0  0  0  0  0  0  0  0  0  0  0
  1  2  1  0
  2  3  1  0
  2  4  1  0
  4  5  1  0
  5  6  1  0
  6  7  1  0
  7  8  1  0
  8  9  2  0
  8 10  1  0
  9 14  1  0
 10 11  1  0
 10 12  2  0
 12 13  1  0
 13 14  2  0
 13 19  1  0
 14 15  1  0
 15 16  1  0
 15 17  1  0
 17 18  1  0
 17 19  2  0
 18 27  2  0
 19 20  1  0
 20 21  1  0
 20 26  2  0
 21 22  2  0
 21 23  1  0
 23 24  1  0
 24 25  2  0
 24 26  1  0
 26 27  1  0
 27 28  1  0
 28 29  2  0
 28 33  1  0
 29 30  1  0
 30 31  2  0
 31 32  1  0
 32 33  2  0
 33 34  1  0
M  CHG  1   2   1
M  END
