
     RDKit          3D

 26 27  0  0  1  0  0  0  0  0999 V2000
    6.8440   10.3200   16.3790 C   0  0  0  0  0  0  0  0  0  0  0  0
    5.8920    9.7670   17.4430 C   0  0  0  0  0  0  0  0  0  0  0  0
    5.6470    8.2600   17.3230 C   0  0  0  0  0  0  0  0  0  0  0  0
    7.1400   11.8160   16.5860 C   0  0  0  0  0  0  0  0  0  0  0  0
    8.2660   12.2840   15.7970 N   0  0  0  0  0  0  0  0  0  0  0  0
    9.6040   12.2530   16.2220 C   0  0  0  0  0  0  0  0  0  0  0  0
    9.8860   11.6050   17.5290 C   0  0  0  0  0  0  0  0  0  0  0  0
    9.9540   10.3780   17.6060 O   0  0  0  0  0  0  0  0  0  0  0  0
   10.0370   12.4650   18.7380 C   0  0  0  0  0  0  0  0  0  0  0  0
    9.9700   11.8470   20.0040 C   0  0  0  0  0  0  0  0  0  0  0  0
   10.0580   12.6050   21.1830 C   0  0  0  0  0  0  0  0  0  0  0  0
    9.8920   11.9170   22.4480 C   0  0  0  0  0  0  0  0  0  0  0  0
    9.7580   11.3510   23.4460 N   0  0  0  0  0  0  0  0  0  0  0  0
   10.2640   13.9970   21.1130 C   0  0  0  0  0  0  0  0  0  0  0  0
   10.3290   14.6310   19.8550 C   0  0  0  0  0  0  0  0  0  0  0  0
   10.5220   16.1300   19.7670 C   0  0  0  0  0  0  0  0  0  0  0  0
   10.1990   13.8690   18.6740 C   0  0  0  0  0  0  0  0  0  0  0  0
   10.6470   12.7170   15.4550 C   0  0  0  0  0  0  0  0  0  0  0  0
   12.1350   12.6570   15.8680 C   0  0  0  0  0  0  0  0  0  0  0  0
   12.7990   14.0420   15.9740 C   0  0  0  0  0  0  0  0  0  0  0  0
   12.9370   11.7100   14.9630 C   0  0  0  0  0  0  0  0  0  0  0  0
   10.3440   13.2570   14.1170 C   0  0  0  0  0  0  0  0  0  0  0  0
   11.1590   13.7070   13.3130 O   0  0  0  0  0  0  0  0  0  0  0  0
    9.0080   13.2350   13.7410 N   0  0  0  0  0  0  0  0  0  0  0  0
    7.9530   12.7820   14.5130 C   0  0  0  0  0  0  0  0  0  0  0  0
    6.8110   12.8410   14.0580 O   0  0  0  0  0  0  0  0  0  0  0  0
  1  2  1  0
  1  4  1  0
  2  3  1  0
  4  5  1  0
  5  6  1  0
  5 25  1  0
  6  7  1  0
  6 18  2  0
  7  8  2  0
  7  9  1  0
  9 10  2  0
  9 17  1  0
 10 11  1  0
 11 12  1  0
 11 14  2  0
 12 13  3  0
 14 15  1  0
 15 16  1  0
 15 17  2  0
 18 19  1  0
 18 22  1  0
 19 20  1  0
 19 21  1  0
 22 23  2  0
 22 24  1  0
 24 25  1  0
 25 26  2  0
M  END
