
     RDKit          3D

 18 20  0  0  1  0  0  0  0  0999 V2000
   67.6020    6.3590   16.3000 C   0  0  0  0  0  0  0  0  0  0  0  0
   66.8240    5.9860   15.1770 O   0  0  0  0  0  0  0  0  0  0  0  0
   67.2840    6.3460   13.9310 C   0  0  0  0  0  0  0  0  0  0  0  0
   68.3930    7.1970   13.6990 C   0  0  0  0  0  0  0  0  0  0  0  0
   68.8010    7.4860   12.3820 C   0  0  0  0  0  0  0  0  0  0  0  0
   68.1100    6.9340   11.2860 C   0  0  0  0  0  0  0  0  0  0  0  0
   66.5970    5.8090   12.8270 C   0  0  0  0  0  0  0  0  0  0  0  0
   67.0030    6.0910   11.5090 C   0  0  0  0  0  0  0  0  0  0  0  0
   66.2710    5.4380   10.3520 C   0  0  0  0  0  0  0  0  0  0  0  0
   66.7470    4.0430   10.0720 C   0  0  0  0  0  0  0  0  0  0  0  0
   66.2700    3.1580    9.0430 C   0  0  0  0  0  0  0  0  0  0  0  0
   67.6920    3.3320   10.7710 C   0  0  0  0  0  0  0  0  0  0  0  0
   67.8300    2.0750   10.2180 N   0  0  0  0  0  0  0  0  0  0  0  0
   66.9830    1.9300    9.1440 C   0  0  0  0  0  0  0  0  0  0  0  0
   66.8410    0.8260    8.3580 N   0  0  0  0  0  0  0  0  0  0  0  0
   65.8870    0.9360    7.4070 C   0  0  0  0  0  0  0  0  0  0  0  0
   65.0900    2.0820    7.2080 C   0  0  0  0  0  0  0  0  0  0  0  0
   65.2940    3.2110    8.0240 C   0  0  0  0  0  0  0  0  0  0  0  0
  1  2  1  0
  2  3  1  0
  3  4  2  0
  3  7  1  0
  4  5  1  0
  5  6  2  0
  6  8  1  0
  7  8  2  0
  8  9  1  0
  9 10  1  0
 10 11  1  0
 10 12  2  0
 11 14  2  0
 11 18  1  0
 12 13  1  0
 13 14  1  0
 14 15  1  0
 15 16  2  0
 16 17  1  0
 17 18  2  0
M  END
