
     RDKit          3D

 28 31  0  0  1  0  0  0  0  0999 V2000
    7.5980   24.8690    4.3880 N   0  0  0  0  0  0  0  0  0  0  0  0
    8.0370   25.2650    5.3830 C   0  0  0  0  0  0  0  0  0  0  0  0
    8.5800   25.7420    6.6060 C   0  0  0  0  0  0  0  0  0  0  0  0
    9.6880   25.2770    7.2740 C   0  0  0  0  0  0  0  0  0  0  0  0
    9.7860   26.0510    8.4160 N   0  0  0  0  0  0  0  0  0  0  0  0
    8.7900   26.9460    8.3990 C   0  0  0  0  0  0  0  0  0  0  0  0
    8.0170   26.8040    7.3220 N   0  0  0  0  0  0  0  0  0  0  0  0
    8.6610   27.9420    9.4990 C   0  0  0  0  0  0  0  0  0  0  0  0
    9.3630   27.8480   10.5030 O   0  0  0  0  0  0  0  0  0  0  0  0
    7.8240   28.9590    9.2230 N   0  0  0  0  0  0  0  0  0  0  0  0
    7.4100   30.0420   10.0540 C   0  0  0  0  0  0  0  0  0  0  0  0
    7.6170   30.0330   11.4520 C   0  0  0  0  0  0  0  0  0  0  0  0
    7.1680   31.0930   12.2520 C   0  0  0  0  0  0  0  0  0  0  0  0
    6.4770   32.1770   11.6870 C   0  0  0  0  0  0  0  0  0  0  0  0
    6.2710   32.2100   10.2880 C   0  0  0  0  0  0  0  0  0  0  0  0
    6.7340   31.1500    9.4730 C   0  0  0  0  0  0  0  0  0  0  0  0
    6.5090   31.2240    8.0150 C   0  0  0  0  0  0  0  0  0  0  0  0
    5.7550   30.2820    7.4150 C   0  0  0  0  0  0  0  0  0  0  0  0
    5.5490   30.1450    5.9180 C   0  0  0  0  0  0  0  0  0  0  0  0
    6.6040   30.9220    5.1230 C   0  0  0  0  0  0  0  0  0  0  0  0
    6.8030   32.3170    5.7190 C   0  0  0  0  0  0  0  0  0  0  0  0
    7.2530   32.2660    7.1910 C   0  0  0  0  0  0  0  0  0  0  0  0
    5.9280   33.2420   12.6260 C   0  0  0  0  0  0  0  0  0  0  0  0
    4.4440   32.9880   12.9730 C   0  0  0  0  0  0  0  0  0  0  0  0
    3.6960   34.2730   13.3840 C   0  0  0  0  0  0  0  0  0  0  0  0
    4.5890   35.2130   14.0930 N   0  0  0  0  0  0  0  0  0  0  0  0
    5.7430   35.6840   13.2850 C   0  0  0  0  0  0  0  0  0  0  0  0
    6.1460   34.6930   12.1710 C   0  0  0  0  0  0  0  0  0  0  0  0
  1  2  3  0
  2  3  1  0
  3  4  2  0
  3  7  1  0
  4  5  1  0
  5  6  1  0
  6  7  2  0
  6  8  1  0
  8  9  2  0
  8 10  1  0
 10 11  1  0
 11 12  2  0
 11 16  1  0
 12 13  1  0
 13 14  2  0
 14 15  1  0
 14 23  1  0
 15 16  2  0
 16 17  1  0
 17 18  2  0
 17 22  1  0
 18 19  1  0
 19 20  1  0
 20 21  1  0
 21 22  1  0
 23 24  1  0
 23 28  1  0
 24 25  1  0
 25 26  1  0
 26 27  1  0
 27 28  1  0
M  CHG  1  26   1
M  END
