
     RDKit          3D

 19 21  0  0  1  0  0  0  0  0999 V2000
   42.8030  -18.9850  104.4330 C   0  0  0  0  0  0  0  0  0  0  0  0
   42.9830  -20.1040  105.2510 O   0  0  0  0  0  0  0  0  0  0  0  0
   44.7580  -19.6710  102.8900 C   0  0  0  0  0  0  0  0  0  0  0  0
   44.1390  -18.6020  103.7950 C   0  0  2  0  0  0  0  0  0  0  0  0
   45.2700  -18.1200  104.7050 C   0  0  2  0  0  0  0  0  0  0  0  0
   45.0350  -16.8200  105.1870 O   0  0  0  0  0  0  0  0  0  0  0  0
   46.4610  -18.1850  103.7450 C   0  0  1  0  0  0  0  0  0  0  0  0
   47.6860  -18.0780  104.4130 O   0  0  0  0  0  0  0  0  0  0  0  0
   46.2610  -19.5840  103.1580 C   0  0  2  0  0  0  0  0  0  0  0  0
   47.0540  -19.9090  101.9930 N   0  0  0  0  0  0  0  0  0  0  0  0
   47.0150  -19.3090  100.7580 C   0  0  0  0  0  0  0  0  0  0  0  0
   47.7800  -19.8470   99.8500 N   0  0  0  0  0  0  0  0  0  0  0  0
   48.4280  -20.8650  100.5270 C   0  0  0  0  0  0  0  0  0  0  0  0
   49.4070  -21.8190  100.1670 C   0  0  0  0  0  0  0  0  0  0  0  0
   49.9390  -21.9030   98.9430 N   0  0  0  0  0  0  0  0  0  0  0  0
   49.8190  -22.6960  101.1070 N   0  0  0  0  0  0  0  0  0  0  0  0
   49.2770  -22.6650  102.3270 C   0  0  0  0  0  0  0  0  0  0  0  0
   48.3590  -21.8330  102.8150 N   0  0  0  0  0  0  0  0  0  0  0  0
   47.9710  -20.9320  101.8700 C   0  0  0  0  0  0  0  0  0  0  0  0
  1  2  1  0
  4  1  1  1
  3  4  1  0
  3  9  1  0
  4  5  1  0
  5  6  1  6
  5  7  1  0
  7  8  1  1
  7  9  1  0
  9 10  1  6
 10 11  1  0
 10 19  1  0
 11 12  2  0
 12 13  1  0
 13 14  2  0
 13 19  1  0
 14 15  1  0
 14 16  1  0
 16 17  2  0
 17 18  1  0
 18 19  2  0
M  END
