
     RDKit          3D

 31 34  0  0  1  0  0  0  0  0999 V2000
   26.7930  -55.6190   -2.1850 C   0  0  0  0  0  0  0  0  0  0  0  0
   27.3170  -57.2420    2.2310 N   0  0  0  0  0  0  0  0  0  0  0  0
   26.1070  -55.9470    0.8210 N   0  0  0  0  0  0  0  0  0  0  0  0
   27.5750  -56.3630   -1.2210 C   0  0  0  0  0  0  0  0  0  0  0  0
   29.9280  -58.6350    1.3860 O   0  0  0  0  0  0  0  0  0  0  0  0
   28.7030  -56.9570   -1.6690 N   0  0  0  0  0  0  0  0  0  0  0  0
   27.1800  -56.4820    0.1380 C   0  0  0  0  0  0  0  0  0  0  0  0
   23.3400  -55.0790    1.8170 N   0  0  0  0  0  0  0  0  0  0  0  0
   24.0300  -55.3740    2.9970 C   0  0  0  0  0  0  0  0  0  0  0  0
   23.5110  -55.1400    4.1720 N   0  0  0  0  0  0  0  0  0  0  0  0
   24.4880  -55.5590    5.0820 O   0  0  0  0  0  0  0  0  0  0  0  0
   25.6150  -56.0480    4.4030 N   0  0  0  0  0  0  0  0  0  0  0  0
   25.3310  -55.9410    3.1290 C   0  0  0  0  0  0  0  0  0  0  0  0
   26.2630  -56.3890    2.0710 C   0  0  0  0  0  0  0  0  0  0  0  0
   27.7040  -58.0080    3.4080 C   0  0  0  0  0  0  0  0  0  0  0  0
   28.7720  -57.3060    4.2540 C   0  0  0  0  0  0  0  0  0  0  0  0
   26.1720  -55.0450   -3.0630 C   0  0  0  0  0  0  0  0  0  0  0  0
   25.4640  -54.3880   -4.1700 C   0  0  0  0  0  0  0  0  0  0  0  0
   23.9390  -54.4570   -3.9570 C   0  0  0  0  0  0  0  0  0  0  0  0
   25.9550  -52.9410   -4.3400 C   0  0  0  0  0  0  0  0  0  0  0  0
   25.7360  -55.0800   -5.3670 O   0  0  0  0  0  0  0  0  0  0  0  0
   27.9770  -57.2770    1.0010 C   0  0  0  0  0  0  0  0  0  0  0  0
   29.1500  -57.8960    0.5250 C   0  0  0  0  0  0  0  0  0  0  0  0
   29.4640  -57.6920   -0.8370 C   0  0  0  0  0  0  0  0  0  0  0  0
   30.8860  -59.5100    0.8040 C   0  0  0  0  0  0  0  0  0  0  0  0
   31.4600  -60.4550    1.8660 C   0  0  2  0  0  0  0  0  0  0  0  0
   30.3500  -61.2270    2.5950 C   0  0  0  0  0  0  0  0  0  0  0  0
   30.9280  -62.2160    3.5290 N   0  0  0  0  0  0  0  0  0  0  0  0
   31.8250  -61.6120    4.5350 C   0  0  0  0  0  0  0  0  0  0  0  0
   32.9380  -60.7850    3.8730 C   0  0  0  0  0  0  0  0  0  0  0  0
   32.3520  -59.7510    2.9010 C   0  0  0  0  0  0  0  0  0  0  0  0
  1  4  1  0
  1 17  3  0
  2 14  1  0
  2 15  1  0
  2 22  1  0
  3  7  1  0
  3 14  2  0
  4  6  2  0
  4  7  1  0
  5 23  1  0
  5 25  1  0
  6 24  1  0
  7 22  2  0
  8  9  1  0
  9 10  2  0
  9 13  1  0
 10 11  1  0
 11 12  1  0
 12 13  2  0
 13 14  1  0
 15 16  1  0
 17 18  1  0
 18 19  1  0
 18 20  1  0
 18 21  1  0
 22 23  1  0
 23 24  2  0
 26 25  1  6
 26 27  1  0
 26 31  1  0
 27 28  1  0
 28 29  1  0
 29 30  1  0
 30 31  1  0
M  CHG  1  28   1
M  END
