
     RDKit          3D

 30 32  0  0  1  0  0  0  0  0999 V2000
   22.3670   51.5880   11.5690 C   0  0  0  0  0  0  0  0  0  0  0  0
   23.1110   52.1400   12.6190 C   0  0  0  0  0  0  0  0  0  0  0  0
   22.9250   51.6200   13.9170 C   0  0  0  0  0  0  0  0  0  0  0  0
   22.0520   50.5340   14.1400 C   0  0  0  0  0  0  0  0  0  0  0  0
   25.1790   53.3180   12.9220 C   0  0  0  0  0  0  0  0  0  0  0  0
   20.5710   49.8190   10.9090 C   0  0  0  0  0  0  0  0  0  0  0  0
   20.1010   48.7410   11.6160 C   0  0  0  0  0  0  0  0  0  0  0  0
   20.2730   47.8080   13.8780 C   0  0  0  0  0  0  0  0  0  0  0  0
   20.3990   48.1650    8.5010 O   0  0  0  0  0  0  0  0  0  0  0  0
   20.0710   49.3460    8.4210 C   0  0  0  0  0  0  0  0  0  0  0  0
   19.5220   49.9140    7.3500 N   0  0  0  0  0  0  0  0  0  0  0  0
   19.0870   49.3510    6.0940 C   0  0  1  0  0  0  0  0  0  0  0  0
   20.2190   49.4310    5.0710 C   0  0  0  0  0  0  0  0  0  0  0  0
   21.1790   48.2420    5.1010 C   0  0  0  0  0  0  0  0  0  0  0  0
   18.3810   47.9890    6.2120 C   0  0  0  0  0  0  0  0  0  0  0  0
   17.3610   47.9000    5.2360 O   0  0  0  0  0  0  0  0  0  0  0  0
   20.1890   50.3390    9.5680 C   0  0  0  0  0  0  0  0  0  0  0  0
   21.4920   50.4960   11.7550 C   0  0  0  0  0  0  0  0  0  0  0  0
   19.1970   47.6460   11.1280 C   0  0  0  0  0  0  0  0  0  0  0  0
   20.5920   48.8140   12.9220 N   0  0  0  0  0  0  0  0  0  0  0  0
   21.3850   49.9450   13.0530 C   0  0  0  0  0  0  0  0  0  0  0  0
   23.8960   53.2300   12.3260 O   0  0  0  0  0  0  0  0  0  0  0  0
   20.9050   46.7600   13.8430 O   0  0  0  0  0  0  0  0  0  0  0  0
   19.1330   48.0040   14.8090 C   0  0  0  0  0  0  0  0  0  0  0  0
   17.8750   48.3770   14.3020 C   0  0  0  0  0  0  0  0  0  0  0  0
   16.7650   48.4120   15.1500 C   0  0  0  0  0  0  0  0  0  0  0  0
   16.9170   48.1640   16.5220 C   0  0  0  0  0  0  0  0  0  0  0  0
   15.5890   48.3150   17.5940 Cl  0  0  0  0  0  0  0  0  0  0  0  0
   18.1680   47.7930   17.0310 C   0  0  0  0  0  0  0  0  0  0  0  0
   19.2790   47.6910   16.1730 C   0  0  0  0  0  0  0  0  0  0  0  0
  1  2  2  0
  1 18  1  0
  2  3  1  0
  2 22  1  0
  3  4  2  0
  4 21  1  0
  5 22  1  0
  6  7  2  0
  6 17  1  0
  6 18  1  0
  7 19  1  0
  7 20  1  0
  8 20  1  0
  8 23  2  0
  8 24  1  0
  9 10  2  0
 10 11  1  0
 10 17  1  0
 11 12  1  0
 12 13  1  6
 12 15  1  0
 13 14  1  0
 15 16  1  0
 18 21  2  0
 20 21  1  0
 24 25  2  0
 24 30  1  0
 25 26  1  0
 26 27  2  0
 27 28  1  0
 27 29  1  0
 29 30  2  0
M  END
