
     RDKit          3D

 17 18  0  0  1  0  0  0  0  0999 V2000
    2.2990    3.0100   48.4560 N   0  0  0  0  0  0  0  0  0  0  0  0
    2.2620    2.7420   49.7200 C   0  0  0  0  0  0  0  0  0  0  0  0
    1.1480    2.3370   50.4210 N   0  0  0  0  0  0  0  0  0  0  0  0
    3.4050    2.8510   50.5200 N   0  0  0  0  0  0  0  0  0  0  0  0
    4.5980    3.3050   50.0680 C   0  0  0  0  0  0  0  0  0  0  0  0
    5.5780    3.3740   50.8060 O   0  0  0  0  0  0  0  0  0  0  0  0
    4.6060    3.6720   48.6530 C   0  0  0  0  0  0  0  0  0  0  0  0
    3.4850    3.4970   47.9190 C   0  0  0  0  0  0  0  0  0  0  0  0
    5.7360    4.2460   48.0960 N   0  0  0  0  0  0  0  0  0  0  0  0
    3.4240    3.8360   46.5840 N   0  0  0  0  0  0  0  0  0  0  0  0
    5.6420    4.9400   46.8150 C   0  0  2  0  0  0  0  0  0  0  0  0
    4.6130    4.2680   45.8640 C   0  0  0  0  0  0  0  0  0  0  0  0
    7.0300    5.1930   46.1860 C   0  0  1  0  0  0  0  0  0  0  0  0
    7.5710    3.9640   45.7400 O   0  0  0  0  0  0  0  0  0  0  0  0
    6.9950    6.1680   44.9860 C   0  0  2  0  0  0  0  0  0  0  0  0
    8.3940    6.5420   44.4760 C   0  0  0  0  0  0  0  0  0  0  0  0
    6.3690    7.3690   45.3770 O   0  0  0  0  0  0  0  0  0  0  0  0
  1  2  2  0
  1  8  1  0
  2  3  1  0
  2  4  1  0
  4  5  1  0
  5  6  2  0
  5  7  1  0
  7  8  2  0
  7  9  1  0
  8 10  1  0
  9 11  1  0
 10 12  1  0
 11 12  1  6
 11 13  1  0
 13 14  1  6
 13 15  1  0
 15 16  1  1
 15 17  1  0
M  END
