
     RDKit          3D

  8  7  0  0  1  0  0  0  0  0999 V2000
   -6.5730    1.7480   17.3870 C   0  0  0  0  0  0  0  0  0  0  0  0
   -7.7020    1.1930   16.9480 F   0  0  0  0  0  0  0  0  0  0  0  0
   -6.6920    3.0740   17.3580 F   0  0  0  0  0  0  0  0  0  0  0  0
   -6.3020    1.3540   18.6280 F   0  0  0  0  0  0  0  0  0  0  0  0
   -5.1910    1.2580   16.2780 S   0  0  0  0  0  0  0  0  0  0  0  0
   -5.2230   -0.3280   16.4300 N   0  0  0  0  0  0  0  0  0  0  0  0
   -3.9610    1.8320   16.8380 O   0  0  0  0  0  0  0  0  0  0  0  0
   -5.5950    1.6650   14.9280 O   0  0  0  0  0  0  0  0  0  0  0  0
  1  2  1  0
  1  3  1  0
  1  4  1  0
  1  5  1  0
  5  6  1  0
  5  7  2  0
  5  8  2  0
M  CHG  1   6  -1
M  END
