
     RDKit          3D

 29 34  0  0  1  0  0  0  0  0999 V2000
   35.7260    3.2700   14.9180 F   0  0  0  0  0  0  0  0  0  0  0  0
   35.5090    3.6760   13.6450 C   0  0  0  0  0  0  0  0  0  0  0  0
   36.3250    4.6680   13.0480 C   0  0  0  0  0  0  0  0  0  0  0  0
   36.0420    5.0530   11.7160 C   0  0  0  0  0  0  0  0  0  0  0  0
   34.9980    4.4490   10.9910 C   0  0  0  0  0  0  0  0  0  0  0  0
   34.2180    3.4450   11.5870 C   0  0  0  0  0  0  0  0  0  0  0  0
   34.4700    3.0660   12.9170 C   0  0  0  0  0  0  0  0  0  0  0  0
   37.4540    5.2850   13.7740 C   0  0  0  0  0  0  0  0  0  0  0  0
   38.5440    5.5580   13.0190 N   0  0  0  0  0  0  0  0  0  0  0  0
   39.6150    6.1330   13.6000 C   0  0  0  0  0  0  0  0  0  0  0  0
   39.6610    6.4680   14.9610 C   0  0  0  0  0  0  0  0  0  0  0  0
   38.5390    6.1590   15.7610 C   0  0  0  0  0  0  0  0  0  0  0  0
   37.4120    5.5720   15.1580 C   0  0  0  0  0  0  0  0  0  0  0  0
   38.6260    6.5160   17.1600 C   0  0  0  0  0  0  0  0  0  0  0  0
   37.8240    6.0440   18.1740 N   0  0  0  0  0  0  0  0  0  0  0  0
   38.2450    6.5950   19.3710 C   0  0  0  0  0  0  0  0  0  0  0  0
   39.3160    7.4000   19.0930 C   0  0  0  0  0  0  0  0  0  0  0  0
   39.5640    7.3400   17.6900 C   0  0  0  0  0  0  0  0  0  0  0  0
   40.6150    7.9820   16.8280 C   0  0  0  0  0  0  0  0  0  0  0  0
   40.8990    7.1330   15.5640 C   0  0  0  0  0  0  0  0  0  0  0  0
   39.9930    8.0870   20.2050 C   0  0  0  0  0  0  0  0  0  0  0  0
   39.3860    8.0350   21.4020 N   0  0  0  0  0  0  0  0  0  0  0  0
   38.0600    7.4620   21.6550 C   0  0  0  0  0  0  0  0  0  0  0  0
   37.6770    6.2850   20.7240 C   0  0  2  0  0  0  0  0  0  0  0  0
   38.0190    4.8820   21.2350 C   0  0  0  0  0  0  0  0  0  0  0  0
   36.6210    4.6690   21.5890 N   0  0  2  0  0  0  0  0  0  0  0  0
   36.2140    5.8340   20.8120 C   0  0  0  0  0  0  0  0  0  0  0  0
   36.2940    4.6880   23.0310 C   0  0  0  0  0  0  0  0  0  0  0  0
   41.0580    8.6780   20.0430 O   0  0  0  0  0  0  0  0  0  0  0  0
  1  2  1  0
  2  3  2  0
  2  7  1  0
  3  4  1  0
  3  8  1  0
  4  5  2  0
  5  6  1  0
  6  7  2  0
  8  9  2  0
  8 13  1  0
  9 10  1  0
 10 11  2  0
 11 12  1  0
 11 20  1  0
 12 13  2  0
 12 14  1  0
 14 15  1  0
 14 18  2  0
 15 16  1  0
 16 17  2  0
 16 24  1  0
 17 18  1  0
 17 21  1  0
 18 19  1  0
 19 20  1  0
 21 22  1  0
 21 29  2  0
 22 23  1  0
 24 23  1  1
 24 25  1  0
 24 27  1  0
 25 26  1  0
 26 27  1  0
 26 28  1  1
M  CHG  1  26   1
M  END
