
     RDKit          3D

 21 24  0  0  1  0  0  0  0  0999 V2000
   26.9290    5.2600    4.8010 C   0  0  0  0  0  0  0  0  0  0  0  0
   26.0810    6.5130    5.0360 C   0  0  0  0  0  0  0  0  0  0  0  0
   24.7100    6.3490    4.3940 C   0  0  0  0  0  0  0  0  0  0  0  0
   24.1620    7.3260    3.8870 O   0  0  0  0  0  0  0  0  0  0  0  0
   24.0920    5.0170    4.4220 C   0  0  0  0  0  0  0  0  0  0  0  0
   24.7700    3.9220    4.8240 C   0  0  0  0  0  0  0  0  0  0  0  0
   24.0720    2.5730    4.8870 C   0  0  0  0  0  0  0  0  0  0  0  0
   24.8660    1.4910    4.1550 C   0  0  0  0  0  0  0  0  0  0  0  0
   26.2800    1.3730    4.7400 C   0  0  2  0  0  0  0  0  0  0  0  0
   27.0280    2.7330    4.6180 C   0  0  1  0  0  0  0  0  0  0  0  0
   26.2510    3.9340    5.2610 C   0  0  1  0  0  0  0  0  0  0  0  0
   28.5010    2.6120    5.1060 C   0  0  0  0  0  0  0  0  0  0  0  0
   29.2750    1.4430    4.4560 C   0  0  0  0  0  0  0  0  0  0  0  0
   28.5210    0.1160    4.6130 C   0  0  1  0  0  0  0  0  0  0  0  0
   27.1100    0.2890    4.0260 C   0  0  1  0  0  0  0  0  0  0  0  0
   26.5670   -1.1410    3.9340 C   0  0  0  0  0  0  0  0  0  0  0  0
   27.8050   -1.9870    3.5830 C   0  0  0  0  0  0  0  0  0  0  0  0
   29.0150   -1.0380    3.7120 C   0  0  2  0  0  0  0  0  0  0  0  0
   30.1700   -1.7080    4.1700 O   0  0  0  0  0  0  0  0  0  0  0  0
   28.5240   -0.2930    6.1090 C   0  0  0  0  0  0  0  0  0  0  0  0
   26.2850    3.8560    6.8040 C   0  0  0  0  0  0  0  0  0  0  0  0
  1  2  1  0
  1 11  1  0
  2  3  1  0
  3  4  2  0
  3  5  1  0
  5  6  2  0
  6  7  1  0
  6 11  1  0
  7  8  1  0
  9  8  1  6
  9 10  1  0
  9 15  1  0
 10 11  1  0
 10 12  1  1
 11 21  1  1
 12 13  1  0
 13 14  1  0
 14 15  1  0
 14 18  1  0
 14 20  1  1
 15 16  1  1
 16 17  1  0
 17 18  1  0
 18 19  1  1
M  END
