
     RDKit          3D

 21 24  0  0  1  0  0  0  0  0999 V2000
    7.6520   70.9790   69.9050 Cl  0  0  0  0  0  0  0  0  0  0  0  0
    6.3670   70.6550   68.8080 C   0  0  0  0  0  0  0  0  0  0  0  0
    5.9080   69.6540   65.3150 N   0  0  0  0  0  0  0  0  0  0  0  0
    5.6180   70.0010   66.5870 C   0  0  0  0  0  0  0  0  0  0  0  0
    4.9890   69.1990   64.4410 C   0  0  0  0  0  0  0  0  0  0  0  0
    1.9490   69.3410   66.5790 N   0  0  0  0  0  0  0  0  0  0  0  0
    3.2730   69.4850   66.1560 C   0  0  0  0  0  0  0  0  0  0  0  0
    6.6550   70.3690   67.4610 C   0  0  0  0  0  0  0  0  0  0  0  0
    5.0370   70.6240   69.2680 C   0  0  0  0  0  0  0  0  0  0  0  0
    4.2770   69.9370   67.0460 C   0  0  0  0  0  0  0  0  0  0  0  0
    5.4740   68.7210   63.0760 C   0  0  0  0  0  0  0  0  0  0  0  0
    3.6340   69.1070   64.8400 C   0  0  0  0  0  0  0  0  0  0  0  0
    4.4420   67.8160   62.3770 C   0  0  1  0  0  0  0  0  0  0  0  0
    4.3920   66.4370   63.0240 C   0  0  0  0  0  0  0  0  0  0  0  0
    3.0650   68.4860   62.4400 C   0  0  0  0  0  0  0  0  0  0  0  0
    3.4400   66.0600   63.9070 C   0  0  0  0  0  0  0  0  0  0  0  0
    2.3510   67.0250   64.3640 C   0  0  0  0  0  0  0  0  0  0  0  0
    3.3310   64.6760   64.5320 C   0  0  0  0  0  0  0  0  0  0  0  0
    2.6050   68.4770   63.9050 C   0  0  1  0  0  0  0  0  0  0  0  0
    4.3420   63.6460   64.0230 C   0  0  0  0  0  0  0  0  0  0  0  0
    3.9950   70.2780   68.3900 C   0  0  0  0  0  0  0  0  0  0  0  0
  1  2  1  0
  2  8  2  0
  2  9  1  0
  3  4  2  0
  3  5  1  0
  4  8  1  0
  4 10  1  0
  5 11  1  0
  5 12  2  0
  6  7  1  0
  7 10  2  0
  7 12  1  0
  9 21  2  0
 10 21  1  0
 13 11  1  1
 12 19  1  0
 13 14  1  0
 13 15  1  0
 14 16  2  0
 15 19  1  0
 16 17  1  0
 16 18  1  0
 19 17  1  1
 18 20  1  0
M  CHG  1   3   1
M  END
