
     RDKit          3D

 24 26  0  0  1  0  0  0  0  0999 V2000
   22.9410   15.3460   32.9210 C   0  0  0  0  0  0  0  0  0  0  0  0
   21.6950   15.5640   32.3210 C   0  0  0  0  0  0  0  0  0  0  0  0
   20.8820   16.6250   32.7500 C   0  0  0  0  0  0  0  0  0  0  0  0
   21.3310   17.5070   33.7660 C   0  0  0  0  0  0  0  0  0  0  0  0
   22.6160   17.3140   34.3470 C   0  0  0  0  0  0  0  0  0  0  0  0
   23.4120   16.2140   33.9350 C   0  0  0  0  0  0  0  0  0  0  0  0
   19.6230   16.8020   32.1490 C   0  0  0  0  0  0  0  0  0  0  0  0
   18.8000   17.8660   32.5480 C   0  0  0  0  0  0  0  0  0  0  0  0
   19.2200   18.7560   33.5590 C   0  0  0  0  0  0  0  0  0  0  0  0
   20.4810   18.5650   34.1720 C   0  0  0  0  0  0  0  0  0  0  0  0
   18.3310   19.8510   33.9650 C   0  0  0  0  0  0  0  0  0  0  0  0
   17.0060   19.7320   33.8520 N   0  0  0  0  0  0  0  0  0  0  0  0
   18.7850   21.0040   34.4680 N   0  0  0  0  0  0  0  0  0  0  0  0
   24.6430   16.0610   34.5410 O   0  0  0  0  0  0  0  0  0  0  0  0
   25.4830   14.9970   34.1180 C   0  0  0  0  0  0  0  0  0  0  0  0
   23.2030   18.2480   35.3250 C   0  0  0  0  0  0  0  0  0  0  0  0
   23.5690   17.9920   36.6120 C   0  0  0  0  0  0  0  0  0  0  0  0
   24.2550   19.1050   37.0420 N   0  0  0  0  0  0  0  0  0  0  0  0
   24.3160   20.0710   36.0990 N   0  0  0  0  0  0  0  0  0  0  0  0
   23.6720   19.5630   35.0610 C   0  0  0  0  0  0  0  0  0  0  0  0
   25.1030   19.3410   38.5210 S   0  0  0  0  0  0  0  0  0  0  0  0
   24.6920   20.6610   39.0230 O   0  0  0  0  0  0  0  0  0  0  0  0
   26.5080   19.0350   38.2180 O   0  0  0  0  0  0  0  0  0  0  0  0
   24.4130   18.0200   39.5960 C   0  0  0  0  0  0  0  0  0  0  0  0
  1  2  2  0
  1  6  1  0
  2  3  1  0
  3  4  2  0
  3  7  1  0
  4  5  1  0
  4 10  1  0
  5  6  2  0
  5 16  1  0
  6 14  1  0
  7  8  2  0
  8  9  1  0
  9 10  2  0
  9 11  1  0
 11 12  2  0
 11 13  1  0
 14 15  1  0
 16 17  2  0
 16 20  1  0
 17 18  1  0
 18 19  1  0
 18 21  1  0
 19 20  2  0
 21 22  2  0
 21 23  2  0
 21 24  1  0
M  CHG  1  12   1
M  END
