
     RDKit          3D

 24 27  0  0  1  0  0  0  0  0999 V2000
   10.3990   63.9280    5.4250 C   0  0  0  0  0  0  0  0  0  0  0  0
   11.8170   63.9930    4.9070 C   0  0  0  0  0  0  0  0  0  0  0  0
   12.1930   63.3060    3.7400 C   0  0  0  0  0  0  0  0  0  0  0  0
   13.5120   63.4540    3.2780 C   0  0  0  0  0  0  0  0  0  0  0  0
   14.3960   64.2910    3.9840 C   0  0  0  0  0  0  0  0  0  0  0  0
   13.9310   64.9380    5.1520 C   0  0  0  0  0  0  0  0  0  0  0  0
   12.6670   64.7700    5.6090 N   0  0  0  0  0  0  0  0  0  0  0  0
   14.8070   65.8370    5.9290 C   0  0  0  0  0  0  0  0  0  0  0  0
   15.7400   66.5170    5.2580 N   0  0  0  0  0  0  0  0  0  0  0  0
   16.5560   67.3440    5.9460 C   0  0  0  0  0  0  0  0  0  0  0  0
   17.5380   68.4770    3.8920 C   0  0  0  0  0  0  0  0  0  0  0  0
   16.3860   68.5270    3.0740 C   0  0  0  0  0  0  0  0  0  0  0  0
   16.5120   69.0030    1.7570 C   0  0  0  0  0  0  0  0  0  0  0  0
   17.6820   69.3980    1.2170 N   0  0  0  0  0  0  0  0  0  0  0  0
   18.7780   69.3550    2.0010 C   0  0  0  0  0  0  0  0  0  0  0  0
   18.7580   68.9150    3.3380 C   0  0  0  0  0  0  0  0  0  0  0  0
   16.4670   67.4390    7.3570 C   0  0  0  0  0  0  0  0  0  0  0  0
   17.3140   68.2650    8.1300 C   0  0  0  0  0  0  0  0  0  0  0  0
   17.1910   68.2870    9.5310 C   0  0  0  0  0  0  0  0  0  0  0  0
   16.2150   67.5000   10.1640 C   0  0  0  0  0  0  0  0  0  0  0  0
   15.3580   66.6940    9.3940 C   0  0  0  0  0  0  0  0  0  0  0  0
   15.4680   66.6500    7.9880 C   0  0  0  0  0  0  0  0  0  0  0  0
   14.6480   65.8650    7.2590 N   0  0  0  0  0  0  0  0  0  0  0  0
   17.5230   68.0760    5.2370 N   0  0  0  0  0  0  0  0  0  0  0  0
  1  2  1  0
  2  3  2  0
  2  7  1  0
  3  4  1  0
  4  5  2  0
  5  6  1  0
  6  7  2  0
  6  8  1  0
  8  9  2  0
  8 23  1  0
  9 10  1  0
 10 17  2  0
 10 24  1  0
 11 12  2  0
 11 16  1  0
 11 24  1  0
 12 13  1  0
 13 14  2  0
 14 15  1  0
 15 16  2  0
 17 18  1  0
 17 22  1  0
 18 19  2  0
 19 20  1  0
 20 21  2  0
 21 22  1  0
 22 23  2  0
M  END
