
     RDKit          3D

 43 48  0  0  1  0  0  0  0  0999 V2000
    4.9450    5.0520    3.6680 O   0  0  0  0  0  0  0  0  0  0  0  0
    5.3810    6.1430    3.2960 C   0  0  0  0  0  0  0  0  0  0  0  0
    4.5670    7.0530    2.6940 N   0  0  0  0  0  0  0  0  0  0  0  0
    3.2490    6.6160    2.1970 C   0  0  0  0  0  0  0  0  0  0  0  0
    2.0830    6.6620    3.1900 C   0  0  0  0  0  0  0  0  0  0  0  0
    2.2950    7.0300    4.5400 C   0  0  0  0  0  0  0  0  0  0  0  0
    1.2210    7.1190    5.4380 C   0  0  0  0  0  0  0  0  0  0  0  0
   -0.0810    6.8300    5.0030 C   0  0  0  0  0  0  0  0  0  0  0  0
   -0.3200    6.4550    3.6650 C   0  0  0  0  0  0  0  0  0  0  0  0
   -1.7510    6.1730    3.2400 C   0  0  0  0  0  0  0  0  0  0  0  0
    0.7620    6.3660    2.7490 C   0  0  0  0  0  0  0  0  0  0  0  0
    0.5040    6.0030    1.2870 C   0  0  0  0  0  0  0  0  0  0  0  0
    4.9180    8.3770    2.2490 C   0  0  0  0  0  0  0  0  0  0  0  0
    5.4550    9.4230    3.1990 C   0  0  0  0  0  0  0  0  0  0  0  0
    4.0410    9.5290    2.7040 C   0  0  0  0  0  0  0  0  0  0  0  0
    6.7980    6.4770    3.4620 C   0  0  0  0  0  0  0  0  0  0  0  0
    7.2760    6.6200    4.9130 C   0  0  2  0  0  0  0  0  0  0  0  0
    8.5280    7.3700    5.0100 N   0  0  0  0  0  0  0  0  0  0  0  0
    7.5210    5.2610    5.6070 C   0  0  0  0  0  0  0  0  0  0  0  0
    8.5600    4.5040    4.8780 N   0  0  0  0  0  0  0  0  0  0  0  0
    9.8090    5.2860    4.7560 C   0  0  0  0  0  0  0  0  0  0  0  0
    9.5380    6.7020    4.1990 C   0  0  1  0  0  0  0  0  0  0  0  0
    9.1520    6.7730    2.7100 C   0  0  0  0  0  0  0  0  0  0  0  0
    7.6640    6.6030    2.4150 C   0  0  0  0  0  0  0  0  0  0  0  0
    7.3000    6.5290    0.9800 C   0  0  0  0  0  0  0  0  0  0  0  0
    6.5260    5.4800    0.4450 C   0  0  0  0  0  0  0  0  0  0  0  0
    6.1390    5.5070   -0.9070 C   0  0  0  0  0  0  0  0  0  0  0  0
    7.7300    7.5680    0.1260 C   0  0  0  0  0  0  0  0  0  0  0  0
    7.3520    7.5870   -1.2290 C   0  0  0  0  0  0  0  0  0  0  0  0
    6.5220    6.5660   -1.7560 C   0  0  0  0  0  0  0  0  0  0  0  0
    6.0540    6.5000   -3.0530 O   0  0  0  0  0  0  0  0  0  0  0  0
    6.2800    7.5610   -3.9770 C   0  0  0  0  0  0  0  0  0  0  0  0
    4.9380    8.0160   -4.5580 C   0  0  0  0  0  0  0  0  0  0  0  0
    4.3840    9.0070   -3.7010 O   0  0  0  0  0  0  0  0  0  0  0  0
    3.0150    9.1050   -3.7270 C   0  0  0  0  0  0  0  0  0  0  0  0
    2.2910    8.7580   -2.5660 C   0  0  0  0  0  0  0  0  0  0  0  0
    3.1200    8.1720   -1.1720 Cl  0  0  0  0  0  0  0  0  0  0  0  0
    0.8860    8.8600   -2.5390 C   0  0  0  0  0  0  0  0  0  0  0  0
    0.1900    9.2840   -3.6850 C   0  0  0  0  0  0  0  0  0  0  0  0
   -1.3180    9.3840   -3.6730 C   0  0  0  0  0  0  0  0  0  0  0  0
    0.9080    9.6270   -4.8450 C   0  0  0  0  0  0  0  0  0  0  0  0
    2.3120    9.5750   -4.8630 C   0  0  0  0  0  0  0  0  0  0  0  0
    3.1320   10.1410   -6.2700 Cl  0  0  0  0  0  0  0  0  0  0  0  0
  1  2  2  0
  2  3  1  0
  2 16  1  0
  3  4  1  0
  3 13  1  0
  4  5  1  0
  5  6  2  0
  5 11  1  0
  6  7  1  0
  7  8  2  0
  8  9  1  0
  9 10  1  0
  9 11  2  0
 11 12  1  0
 13 14  1  0
 13 15  1  0
 14 15  1  0
 16 17  1  0
 16 24  2  0
 17 18  1  0
 17 19  1  6
 18 22  1  0
 19 20  1  0
 20 21  1  0
 22 21  1  1
 22 23  1  0
 23 24  1  0
 24 25  1  0
 25 26  2  0
 25 28  1  0
 26 27  1  0
 27 30  2  0
 28 29  2  0
 29 30  1  0
 30 31  1  0
 31 32  1  0
 32 33  1  0
 33 34  1  0
 34 35  1  0
 35 36  2  0
 35 42  1  0
 36 37  1  0
 36 38  1  0
 38 39  2  0
 39 40  1  0
 39 41  1  0
 41 42  2  0
 42 43  1  0
M  CHG  1  20   1
M  END
