
     RDKit          3D

 33 37  0  0  1  0  0  0  0  0999 V2000
    7.2990   38.6950    4.0000 O   0  0  0  0  0  0  0  0  0  0  0  0
    6.3990   38.3770    3.2260 C   0  0  0  0  0  0  0  0  0  0  0  0
    6.1860   37.1590    2.7360 N   0  0  0  0  0  0  0  0  0  0  0  0
    5.1640   37.1140    1.8840 C   0  0  0  0  0  0  0  0  0  0  0  0
    4.8010   36.1170    1.2700 O   0  0  0  0  0  0  0  0  0  0  0  0
    5.3880   39.2230    2.6350 C   0  0  0  0  0  0  0  0  0  0  0  0
    4.6130   38.4540    1.8380 C   0  0  0  0  0  0  0  0  0  0  0  0
    3.4930   38.8770    0.9570 C   0  0  0  0  0  0  0  0  0  0  0  0
    3.3900   40.1340    0.2560 C   0  0  0  0  0  0  0  0  0  0  0  0
    4.2100   41.2730    0.0540 C   0  0  0  0  0  0  0  0  0  0  0  0
    3.7420   42.4050   -0.6400 C   0  0  0  0  0  0  0  0  0  0  0  0
    2.4400   42.4180   -1.1740 C   0  0  0  0  0  0  0  0  0  0  0  0
    1.6230   41.2830   -1.0520 C   0  0  0  0  0  0  0  0  0  0  0  0
    2.0990   40.1620   -0.3520 C   0  0  0  0  0  0  0  0  0  0  0  0
    1.5240   38.9370   -0.0870 N   0  0  0  0  0  0  0  0  0  0  0  0
    2.3500   38.1520    0.6960 C   0  0  0  0  0  0  0  0  0  0  0  0
    1.9000   36.7900    1.1060 C   0  0  0  0  0  0  0  0  0  0  0  0
    5.2300   40.6450    2.9960 C   0  0  0  0  0  0  0  0  0  0  0  0
    6.2900   41.6090    2.9700 C   0  0  0  0  0  0  0  0  0  0  0  0
    7.6730   41.5910    2.6610 C   0  0  0  0  0  0  0  0  0  0  0  0
    8.4530   42.7620    2.7330 C   0  0  0  0  0  0  0  0  0  0  0  0
    5.7120   42.8590    3.3370 C   0  0  0  0  0  0  0  0  0  0  0  0
    6.4810   44.0380    3.3710 C   0  0  0  0  0  0  0  0  0  0  0  0
    7.8560   43.9870    3.0840 C   0  0  0  0  0  0  0  0  0  0  0  0
    4.3690   42.6200    3.6170 N   0  0  0  0  0  0  0  0  0  0  0  0
    4.0820   41.2700    3.4110 C   0  0  0  0  0  0  0  0  0  0  0  0
    2.7190   40.6990    3.6450 C   0  0  0  0  0  0  0  0  0  0  0  0
    3.4130   43.6190    4.0690 C   0  0  0  0  0  0  0  0  0  0  0  0
    2.6220   44.2560    2.9130 C   0  0  0  0  0  0  0  0  0  0  0  0
    1.1210   44.3570    3.2500 C   0  0  0  0  0  0  0  0  0  0  0  0
    0.3580   45.3290    2.4270 N   0  0  0  0  0  0  0  0  0  0  0  0
    0.5100   45.1430    0.9660 C   0  0  0  0  0  0  0  0  0  0  0  0
    0.5630   46.7310    2.8550 C   0  0  0  0  0  0  0  0  0  0  0  0
  1  2  2  0
  2  3  1  0
  2  6  1  0
  3  4  1  0
  4  5  2  0
  4  7  1  0
  6  7  2  0
  6 18  1  0
  7  8  1  0
  8  9  1  0
  8 16  2  0
  9 10  2  0
  9 14  1  0
 10 11  1  0
 11 12  2  0
 12 13  1  0
 13 14  2  0
 14 15  1  0
 15 16  1  0
 16 17  1  0
 18 19  1  0
 18 26  2  0
 19 20  2  0
 19 22  1  0
 20 21  1  0
 21 24  2  0
 22 23  2  0
 22 25  1  0
 23 24  1  0
 25 26  1  0
 25 28  1  0
 26 27  1  0
 28 29  1  0
 29 30  1  0
 30 31  1  0
 31 32  1  0
 31 33  1  0
M  CHG  1  31   1
M  END
