lingo_3d_mol_dude_nh_3l3m
     RDKit          3D

 25 28  0  0  1  0  0  0  0  0999 V2000
   28.0990    9.0100   27.4730 F   0  0  0  0  0  0  0  0  0  0  0  0
   23.0900    7.4480   24.0380 C   0  0  0  0  0  0  0  0  0  0  0  0
   26.4850   12.3140   27.6550 C   0  0  0  0  0  0  0  0  0  0  0  0
   22.7950    8.6640   23.3890 C   0  0  0  0  0  0  0  0  0  0  0  0
   27.3590   12.9640   28.5480 C   0  0  0  0  0  0  0  0  0  0  0  0
   23.9820    7.4320   25.1230 C   0  0  0  0  0  0  0  0  0  0  0  0
   28.7270   10.9570   28.6650 C   0  0  0  0  0  0  0  0  0  0  0  0
   26.7090   10.9670   27.2880 C   0  0  0  0  0  0  0  0  0  0  0  0
   23.3910    9.8820   23.7990 C   0  0  0  0  0  0  0  0  0  0  0  0
   28.4800   12.2830   29.0680 C   0  0  0  0  0  0  0  0  0  0  0  0
   24.3150    9.8760   24.8810 C   0  0  0  0  0  0  0  0  0  0  0  0
   24.5800    8.6360   25.5260 C   0  0  0  0  0  0  0  0  0  0  0  0
   27.8440   10.2980   27.7960 C   0  0  0  0  0  0  0  0  0  0  0  0
   25.7590   10.2740   26.4220 C   0  0  0  0  0  0  0  0  0  0  0  0
   22.9880   11.1560   23.1050 C   0  0  0  0  0  0  0  0  0  0  0  0
   29.5970   13.6820   32.5160 C   0  0  0  0  0  0  0  0  0  0  0  0
   30.2560   14.9610   31.9900 C   0  0  0  0  0  0  0  0  0  0  0  0
   28.6470   13.1130   31.4550 C   0  0  0  0  0  0  0  0  0  0  0  0
   30.9620   14.7020   30.6550 C   0  0  0  0  0  0  0  0  0  0  0  0
   29.3830   12.9100   30.1170 C   0  0  2  0  0  0  0  0  0  0  0  0
   25.0640   10.8930   25.4660 N   0  0  0  0  0  0  0  0  0  0  0  0
   25.4960    8.9570   26.5060 N   0  0  0  0  0  0  0  0  0  0  0  0
   30.0020   14.1750   29.6600 N   0  0  0  0  0  0  0  0  0  0  0  0
   23.8070   12.2020   23.2100 N   0  0  0  0  0  0  0  0  0  0  0  0
   21.9560   11.2100   22.4440 O   0  0  0  0  0  0  0  0  0  0  0  0
  1 13  1  0
  2  4  2  0
  2  6  1  0
  3  5  2  0
  3  8  1  0
  4  9  1  0
  5 10  1  0
  6 12  2  0
  7 10  2  0
  7 13  1  0
  8 13  2  0
  8 14  1  0
  9 11  2  0
  9 15  1  0
 20 10  1  6
 11 12  1  0
 11 21  1  0
 12 22  1  0
 14 21  1  0
 14 22  2  0
 15 24  1  0
 15 25  2  0
 16 17  1  0
 16 18  1  0
 17 19  1  0
 18 20  1  0
 19 23  1  0
 20 23  1  0
M  CHG  2  22   1  23   1
M  END
