
     RDKit          3D

 35 38  0  0  1  0  0  0  0  0999 V2000
    7.0050    1.7790    8.2280 C   0  0  0  0  0  0  0  0  0  0  0  0
    6.4710    4.1740   10.6070 C   0  0  0  0  0  0  0  0  0  0  0  0
   14.2920    3.7760    6.8520 N   0  0  0  0  0  0  0  0  0  0  0  0
   13.8980    4.8570    7.5600 C   0  0  0  0  0  0  0  0  0  0  0  0
   12.5800    5.3610    7.5160 C   0  0  0  0  0  0  0  0  0  0  0  0
    7.9500    4.2610    6.1440 C   0  0  0  0  0  0  0  0  0  0  0  0
    7.0640    3.9020    7.1860 C   0  0  0  0  0  0  0  0  0  0  0  0
   11.7960   -0.3490    2.5750 C   0  0  0  0  0  0  0  0  0  0  0  0
   12.1840    6.5990    8.3040 C   0  0  0  0  0  0  0  0  0  0  0  0
    6.0690    5.2880    5.0130 C   0  0  0  0  0  0  0  0  0  0  0  0
   11.6860    0.9840    4.5680 C   0  0  0  0  0  0  0  0  0  0  0  0
    5.2700    4.8980    6.1020 C   0  0  0  0  0  0  0  0  0  0  0  0
    8.7680    5.0400    9.4840 O   0  0  0  0  0  0  0  0  0  0  0  0
    8.0530    3.7900    9.7870 S   0  0  0  0  0  0  0  0  0  0  0  0
    8.7080    2.6900   10.5070 O   0  0  0  0  0  0  0  0  0  0  0  0
    7.5130    3.1450    8.2740 N   0  0  0  0  0  0  0  0  0  0  0  0
    7.4320    4.9500    5.0350 C   0  0  0  0  0  0  0  0  0  0  0  0
    5.7480    4.2180    7.1650 N   0  0  0  0  0  0  0  0  0  0  0  0
    9.4120    3.8810    6.1540 C   0  0  0  0  0  0  0  0  0  0  0  0
   10.3010    4.9220    6.6620 N   0  0  0  0  0  0  0  0  0  0  0  0
   11.6700    4.6240    6.7230 C   0  0  0  0  0  0  0  0  0  0  0  0
   11.3230    6.2640    9.2600 F   0  0  0  0  0  0  0  0  0  0  0  0
   11.6170    7.4930    7.4940 F   0  0  0  0  0  0  0  0  0  0  0  0
   13.2430    7.1710    8.8760 F   0  0  0  0  0  0  0  0  0  0  0  0
   12.0920    3.5590    6.0160 N   0  0  0  0  0  0  0  0  0  0  0  0
   13.3600    3.1840    6.1110 C   0  0  0  0  0  0  0  0  0  0  0  0
   13.7450    2.0740    5.3890 N   0  0  0  0  0  0  0  0  0  0  0  0
   13.0770    1.2720    4.4530 C   0  0  0  0  0  0  0  0  0  0  0  0
   13.8270    0.7140    3.3900 C   0  0  0  0  0  0  0  0  0  0  0  0
   13.1560   -0.1010    2.4630 C   0  0  0  0  0  0  0  0  0  0  0  0
   13.7190   -0.8210    1.2650 C   0  0  0  0  0  0  0  0  0  0  0  0
   11.0240    0.1770    3.6200 C   0  0  0  0  0  0  0  0  0  0  0  0
   11.3880   -1.1720    1.5290 N   0  0  0  0  0  0  0  0  0  0  0  0
   12.4330   -1.4970    0.7580 C   0  0  0  0  0  0  0  0  0  0  0  0
   12.3990   -2.2380   -0.2210 O   0  0  0  0  0  0  0  0  0  0  0  0
  1 16  1  0
  2 14  1  0
  3  4  2  0
  3 26  1  0
  4  5  1  0
  5  9  1  0
  5 21  2  0
  6  7  2  0
  6 17  1  0
  6 19  1  0
  7 16  1  0
  7 18  1  0
  8 30  1  0
  8 32  2  0
  8 33  1  0
  9 22  1  0
  9 23  1  0
  9 24  1  0
 10 12  1  0
 10 17  2  0
 11 28  2  0
 11 32  1  0
 12 18  2  0
 13 14  2  0
 14 15  2  0
 14 16  1  0
 19 20  1  0
 20 21  1  0
 21 25  1  0
 25 26  2  0
 26 27  1  0
 27 28  1  0
 28 29  1  0
 29 30  2  0
 30 31  1  0
 31 34  1  0
 33 34  1  0
 34 35  2  0
M  END
