
     RDKit          3D

 33 34  0  0  1  0  0  0  0  0999 V2000
   23.7570  -34.1670   14.5840 O   0  0  0  0  0  0  0  0  0  0  0  0
   21.8930  -33.0630   14.1330 O   0  0  0  0  0  0  0  0  0  0  0  0
   22.6550  -34.0450   14.0100 C   0  0  0  0  0  0  0  0  0  0  0  0
   22.1740  -35.1710   13.0830 C   0  0  1  0  0  0  0  0  0  0  0  0
   22.7920  -34.9930   11.6830 C   0  0  0  0  0  0  0  0  0  0  0  0
   24.2900  -35.2560   11.5300 C   0  0  0  0  0  0  0  0  0  0  0  0
   22.4100  -36.5500   13.7420 C   0  0  0  0  0  0  0  0  0  0  0  0
   21.6950  -37.7690   13.1670 C   0  0  0  0  0  0  0  0  0  0  0  0
   20.4350  -37.7050   12.5290 C   0  0  0  0  0  0  0  0  0  0  0  0
   19.7980  -38.8820   12.0660 C   0  0  0  0  0  0  0  0  0  0  0  0
   20.3970  -40.1440   12.2960 C   0  0  0  0  0  0  0  0  0  0  0  0
   21.6670  -40.2010   12.9220 C   0  0  0  0  0  0  0  0  0  0  0  0
   22.3050  -39.0250   13.3470 C   0  0  0  0  0  0  0  0  0  0  0  0
   19.6840  -41.2640   11.9290 O   0  0  0  0  0  0  0  0  0  0  0  0
   20.2930  -42.5390   12.0630 C   0  0  0  0  0  0  0  0  0  0  0  0
   19.2210  -43.5940   11.8010 C   0  0  0  0  0  0  0  0  0  0  0  0
   18.3720  -43.8800   13.0450 C   0  0  0  0  0  0  0  0  0  0  0  0
   17.0040  -44.4530   12.6940 C   0  0  0  0  0  0  0  0  0  0  0  0
   18.4540  -38.7830   11.3450 C   0  0  0  0  0  0  0  0  0  0  0  0
   18.5020  -39.2070    9.9460 N   0  0  0  0  0  0  0  0  0  0  0  0
   17.4400  -39.2040    9.1200 C   0  0  0  0  0  0  0  0  0  0  0  0
   16.3070  -38.9000    9.4860 O   0  0  0  0  0  0  0  0  0  0  0  0
   17.6950  -39.5120    7.6700 C   0  0  0  0  0  0  0  0  0  0  0  0
   18.5440  -40.5690    7.2670 C   0  0  0  0  0  0  0  0  0  0  0  0
   18.7370  -40.8410    5.8980 C   0  0  0  0  0  0  0  0  0  0  0  0
   18.0790  -40.0780    4.9090 C   0  0  0  0  0  0  0  0  0  0  0  0
   17.2070  -39.0480    5.3110 C   0  0  0  0  0  0  0  0  0  0  0  0
   17.0150  -38.7700    6.6780 C   0  0  0  0  0  0  0  0  0  0  0  0
   18.2840  -40.3530    3.4260 C   0  0  0  0  0  0  0  0  0  0  0  0
   19.1750  -41.3390    8.1860 F   0  0  0  0  0  0  0  0  0  0  0  0
   17.1150  -40.6360    2.8610 F   0  0  0  0  0  0  0  0  0  0  0  0
   19.1040  -41.3830    3.2170 F   0  0  0  0  0  0  0  0  0  0  0  0
   18.7910  -39.2720    2.8330 F   0  0  0  0  0  0  0  0  0  0  0  0
  1  3  1  0
  2  3  2  0
  3  4  1  0
  4  5  1  6
  4  7  1  0
  5  6  1  0
  7  8  1  0
  8  9  2  0
  8 13  1  0
  9 10  1  0
 10 11  2  0
 10 19  1  0
 11 12  1  0
 11 14  1  0
 12 13  2  0
 14 15  1  0
 15 16  1  0
 16 17  1  0
 17 18  1  0
 19 20  1  0
 20 21  1  0
 21 22  2  0
 21 23  1  0
 23 24  2  0
 23 28  1  0
 24 25  1  0
 24 30  1  0
 25 26  2  0
 26 27  1  0
 26 29  1  0
 27 28  2  0
 29 31  1  0
 29 32  1  0
 29 33  1  0
M  CHG  1   1  -1
M  END
