
     RDKit          3D

 32 35  0  0  1  0  0  0  0  0999 V2000
    1.8280   -9.3680  -16.6320 C   0  0  0  0  0  0  0  0  0  0  0  0
    4.4710   -8.2580  -16.4070 C   0  0  0  0  0  0  0  0  0  0  0  0
    6.1280   -7.7080  -14.7120 C   0  0  0  0  0  0  0  0  0  0  0  0
    6.3230   -4.0060  -14.3580 C   0  0  0  0  0  0  0  0  0  0  0  0
    5.3810   -3.5940  -15.3230 C   0  0  0  0  0  0  0  0  0  0  0  0
    4.9110   -5.9240  -15.8670 C   0  0  0  0  0  0  0  0  0  0  0  0
   -1.5110  -10.8540  -13.1860 C   0  0  0  0  0  0  0  0  0  0  0  0
   -0.6620  -11.1610  -10.8300 C   0  0  0  0  0  0  0  0  0  0  0  0
    0.8080  -11.5690  -12.8390 C   0  0  0  0  0  0  0  0  0  0  0  0
   -0.0160   -9.6320   -8.9580 C   0  0  0  0  0  0  0  0  0  0  0  0
    2.4370   -9.2200  -14.2760 O   0  0  0  0  0  0  0  0  0  0  0  0
    1.6920   -9.9750  -15.2160 C   0  0  1  0  0  0  0  0  0  0  0  0
    3.5300   -9.4670  -17.3270 S   0  0  0  0  0  0  0  0  0  0  0  0
    4.0780  -10.7970  -17.0180 O   0  0  0  0  0  0  0  0  0  0  0  0
    3.4600   -9.0100  -18.7210 O   0  0  0  0  0  0  0  0  0  0  0  0
    5.4290   -8.6720  -15.4600 C   0  0  0  0  0  0  0  0  0  0  0  0
    5.8710   -6.3370  -14.9100 C   0  0  0  0  0  0  0  0  0  0  0  0
    6.5590   -5.3750  -14.1480 C   0  0  0  0  0  0  0  0  0  0  0  0
    7.2050   -2.8450  -13.4400 Cl  0  0  0  0  0  0  0  0  0  0  0  0
    4.6640   -4.5520  -16.0650 C   0  0  0  0  0  0  0  0  0  0  0  0
    4.2090   -6.8900  -16.6130 C   0  0  0  0  0  0  0  0  0  0  0  0
    0.2180  -10.0430  -14.7580 C   0  0  0  0  0  0  0  0  0  0  0  0
   -0.6280   -9.4410  -15.4240 O   0  0  0  0  0  0  0  0  0  0  0  0
   -0.1170  -10.7600  -13.6550 N   0  0  0  0  0  0  0  0  0  0  0  0
   -1.6200  -10.3610  -11.7310 C   0  0  0  0  0  0  0  0  0  0  0  0
    0.7800  -11.0940  -11.3760 C   0  0  0  0  0  0  0  0  0  0  0  0
   -0.8050  -10.7950   -9.4050 N   0  0  0  0  0  0  0  0  0  0  0  0
   -0.5840   -8.9860   -7.6910 C   0  0  0  0  0  0  0  0  0  0  0  0
   -0.9110  -10.0750   -6.6770 C   0  0  0  0  0  0  0  0  0  0  0  0
   -1.6900  -11.1300   -7.3010 N   0  0  0  0  0  0  0  0  0  0  0  0
   -1.6180  -11.5230   -8.5850 C   0  0  0  0  0  0  0  0  0  0  0  0
   -2.2870  -12.4830   -8.9680 O   0  0  0  0  0  0  0  0  0  0  0  0
  1 12  1  0
  1 13  1  0
  2 13  1  0
  2 16  1  0
  2 21  2  0
  3 16  2  0
  3 17  1  0
  4  5  1  0
  4 18  2  0
  4 19  1  0
  5 20  2  0
  6 17  2  0
  6 20  1  0
  6 21  1  0
  7 24  1  0
  7 25  1  0
  8 25  1  0
  8 26  1  0
  8 27  1  0
  9 24  1  0
  9 26  1  0
 10 27  1  0
 10 28  1  0
 12 11  1  1
 12 22  1  0
 13 14  2  0
 13 15  2  0
 17 18  1  0
 22 23  2  0
 22 24  1  0
 27 31  1  0
 28 29  1  0
 29 30  1  0
 30 31  1  0
 31 32  2  0
M  END
