
     RDKit          3D

 25 28  0  0  1  0  0  0  0  0999 V2000
  -11.8600   -9.2990   60.6590 C   0  0  0  0  0  0  0  0  0  0  0  0
  -12.0650   -8.9800   62.0150 C   0  0  0  0  0  0  0  0  0  0  0  0
  -11.9420   -7.6480   62.4550 C   0  0  0  0  0  0  0  0  0  0  0  0
  -12.1630   -7.3380   63.7650 O   0  0  0  0  0  0  0  0  0  0  0  0
  -11.5940   -6.6370   61.5400 C   0  0  0  0  0  0  0  0  0  0  0  0
  -11.3830   -6.9540   60.1850 C   0  0  0  0  0  0  0  0  0  0  0  0
  -11.5220   -8.2860   59.7380 C   0  0  0  0  0  0  0  0  0  0  0  0
  -11.2960   -8.6290   58.2770 C   0  0  0  0  0  0  0  0  0  0  0  0
   -9.9680   -9.3660   58.0600 C   0  0  0  0  0  0  0  0  0  0  0  0
   -9.6520   -9.5350   56.6490 N   0  0  0  0  0  0  0  0  0  0  0  0
   -9.0900   -8.5120   55.9150 C   0  0  0  0  0  0  0  0  0  0  0  0
   -8.7730   -8.7880   54.6490 N   0  0  0  0  0  0  0  0  0  0  0  0
   -8.8770   -7.2720   56.4990 N   0  0  0  0  0  0  0  0  0  0  0  0
   -8.3600   -6.3230   55.7800 C   0  0  0  0  0  0  0  0  0  0  0  0
   -8.1310   -5.0880   56.3800 N   0  0  0  0  0  0  0  0  0  0  0  0
   -8.0330   -6.5310   54.4780 N   0  0  0  0  0  0  0  0  0  0  0  0
   -7.4970   -5.6820   53.5590 N   0  0  0  0  0  0  0  0  0  0  0  0
   -8.2350   -7.7980   53.9160 C   0  0  0  0  0  0  0  0  0  0  0  0
   -7.8140   -7.7790   52.6550 N   0  0  0  0  0  0  0  0  0  0  0  0
   -7.3950   -6.4920   52.5140 C   0  0  0  0  0  0  0  0  0  0  0  0
   -6.8570   -6.0280   51.2440 C   0  0  0  0  0  0  0  0  0  0  0  0
   -6.4790   -6.6800   50.1000 C   0  0  0  0  0  0  0  0  0  0  0  0
   -6.0220   -5.6790   49.2000 C   0  0  0  0  0  0  0  0  0  0  0  0
   -6.1660   -4.4910   49.8560 C   0  0  0  0  0  0  0  0  0  0  0  0
   -6.6700   -4.6860   51.1010 O   0  0  0  0  0  0  0  0  0  0  0  0
  1  2  2  0
  1  7  1  0
  2  3  1  0
  3  4  1  0
  3  5  2  0
  5  6  1  0
  6  7  2  0
  7  8  1  0
  8  9  1  0
  9 10  1  0
 10 11  1  0
 11 12  2  0
 11 13  1  0
 12 18  1  0
 13 14  2  0
 14 15  1  0
 14 16  1  0
 16 17  1  0
 16 18  1  0
 17 20  2  0
 18 19  2  0
 19 20  1  0
 20 21  1  0
 21 22  2  0
 21 25  1  0
 22 23  1  0
 23 24  2  0
 24 25  1  0
M  END
