
     RDKit          3D

 29 31  0  0  1  0  0  0  0  0999 V2000
   89.8770   18.9060   -4.3790 C   0  0  0  0  0  0  0  0  0  0  0  0
   91.0180   19.0240   -5.3920 C   0  0  0  0  0  0  0  0  0  0  0  0
   92.3750   19.2690   -4.7530 C   0  0  0  0  0  0  0  0  0  0  0  0
   92.8350   18.1630   -3.8930 C   0  0  0  0  0  0  0  0  0  0  0  0
   92.9560   18.3980   -2.5090 C   0  0  0  0  0  0  0  0  0  0  0  0
   93.3880   17.3780   -1.6490 C   0  0  0  0  0  0  0  0  0  0  0  0
   93.6910   16.1020   -2.1530 C   0  0  0  0  0  0  0  0  0  0  0  0
   93.5590   15.8560   -3.5290 C   0  0  0  0  0  0  0  0  0  0  0  0
   93.1250   16.8780   -4.4010 C   0  0  0  0  0  0  0  0  0  0  0  0
   93.0980   20.4140   -4.8940 C   0  0  0  0  0  0  0  0  0  0  0  0
   92.5740   21.6270   -5.5590 C   0  0  0  0  0  0  0  0  0  0  0  0
   91.4130   22.2720   -5.0730 C   0  0  0  0  0  0  0  0  0  0  0  0
   90.9750   23.4830   -5.6420 C   0  0  0  0  0  0  0  0  0  0  0  0
   91.7080   24.0730   -6.6870 C   0  0  0  0  0  0  0  0  0  0  0  0
   91.3200   25.2770   -7.1920 O   0  0  0  0  0  0  0  0  0  0  0  0
   92.8580   23.4340   -7.1870 C   0  0  0  0  0  0  0  0  0  0  0  0
   93.2830   22.2110   -6.6310 C   0  0  0  0  0  0  0  0  0  0  0  0
   94.4790   20.5020   -4.3750 C   0  0  0  0  0  0  0  0  0  0  0  0
   94.8550   21.5230   -3.4770 C   0  0  0  0  0  0  0  0  0  0  0  0
   96.1800   21.6000   -3.0040 C   0  0  0  0  0  0  0  0  0  0  0  0
   97.1500   20.6540   -3.4150 C   0  0  0  0  0  0  0  0  0  0  0  0
   98.4570   20.6530   -2.9880 O   0  0  0  0  0  0  0  0  0  0  0  0
   99.0550   21.9110   -2.7170 C   0  0  0  0  0  0  0  0  0  0  0  0
  100.4650   21.6680   -2.1630 C   0  0  0  0  0  0  0  0  0  0  0  0
  101.1700   22.9370   -1.8560 N   0  0  0  0  0  0  0  0  0  0  0  0
  102.6370   22.7660   -1.8080 C   0  0  0  0  0  0  0  0  0  0  0  0
  100.6530   23.6210   -0.6470 C   0  0  0  0  0  0  0  0  0  0  0  0
   96.7660   19.6300   -4.2980 C   0  0  0  0  0  0  0  0  0  0  0  0
   95.4520   19.5660   -4.7880 C   0  0  0  0  0  0  0  0  0  0  0  0
  1  2  1  0
  2  3  1  0
  3  4  1  0
  3 10  2  0
  4  5  2  0
  4  9  1  0
  5  6  1  0
  6  7  2  0
  7  8  1  0
  8  9  2  0
 10 11  1  0
 10 18  1  0
 11 12  2  0
 11 17  1  0
 12 13  1  0
 13 14  2  0
 14 15  1  0
 14 16  1  0
 16 17  2  0
 18 19  2  0
 18 29  1  0
 19 20  1  0
 20 21  2  0
 21 22  1  0
 21 28  1  0
 22 23  1  0
 23 24  1  0
 24 25  1  0
 25 26  1  0
 25 27  1  0
 28 29  2  0
M  CHG  1  25   1
M  END
