mol_craft_dude_nh_2i78_ligand
     RDKit          3D

 31 34  0  0  1  0  0  0  0  0999 V2000
  -18.2240   -6.4190   61.0330 C   0  0  0  0  0  0  0  0  0  0  0  0
  -19.4550   -6.8430   61.6980 C   0  0  0  0  0  0  0  0  0  0  0  0
  -20.3990   -4.4890   61.4970 C   0  0  0  0  0  0  0  0  0  0  0  0
  -24.0490   -4.4670   60.6050 C   0  0  0  0  0  0  0  0  0  0  0  0
  -18.2390   -5.9760   59.7590 C   0  0  0  0  0  0  0  0  0  0  0  0
  -16.9920   -5.5830   58.9760 C   0  0  0  0  0  0  0  0  0  0  0  0
  -15.6910   -5.6090   59.8250 C   0  0  2  0  0  0  0  0  0  0  0  0
  -14.2460   -6.5020   57.9010 C   0  0  0  0  0  0  0  0  0  0  0  0
  -13.4240   -3.9360   60.3990 F   0  0  0  0  0  0  0  0  0  0  0  0
  -13.3280   -4.7680   59.3380 C   0  0  0  0  0  0  0  0  0  0  0  0
  -12.1290   -4.8030   58.6020 C   0  0  0  0  0  0  0  0  0  0  0  0
  -11.9920   -5.6720   57.5080 C   0  0  0  0  0  0  0  0  0  0  0  0
  -10.8510   -5.6810   56.7840 F   0  0  0  0  0  0  0  0  0  0  0  0
  -13.0450   -6.5340   57.1660 C   0  0  0  0  0  0  0  0  0  0  0  0
  -12.8990   -7.4000   56.1390 F   0  0  0  0  0  0  0  0  0  0  0  0
  -14.4060   -5.6150   58.9880 C   0  0  0  0  0  0  0  0  0  0  0  0
  -15.7250   -6.7790   60.8290 C   0  0  1  0  0  0  0  0  0  0  0  0
  -14.4810   -6.8800   61.6040 N   0  0  0  0  0  0  0  0  0  0  0  0
  -16.9180   -6.6220   61.7860 C   0  0  0  0  0  0  0  0  0  0  0  0
  -19.5770   -7.9820   62.1420 O   0  0  0  0  0  0  0  0  0  0  0  0
  -20.4480   -5.9220   61.8410 N   0  0  0  0  0  0  0  0  0  0  0  0
  -21.7030   -6.2960   62.5310 C   0  0  0  0  0  0  0  0  0  0  0  0
  -22.8970   -5.6920   61.8480 C   0  0  0  0  0  0  0  0  0  0  0  0
  -24.1590   -6.0500   62.0830 N   0  0  0  0  0  0  0  0  0  0  0  0
  -24.9190   -5.2510   61.2550 N   0  0  0  0  0  0  0  0  0  0  0  0
  -24.4630   -3.4590   59.5720 C   0  0  0  0  0  0  0  0  0  0  0  0
  -24.2530   -3.9390   58.3460 F   0  0  0  0  0  0  0  0  0  0  0  0
  -23.7870   -2.3190   59.7050 F   0  0  0  0  0  0  0  0  0  0  0  0
  -25.7610   -3.1720   59.6890 F   0  0  0  0  0  0  0  0  0  0  0  0
  -22.7640   -4.7100   60.9390 N   0  0  0  0  0  0  0  0  0  0  0  0
  -21.5000   -4.1670   60.4700 C   0  0  0  0  0  0  0  0  0  0  0  0
  1  2  1  0
  1  5  2  0
  1 19  1  0
  2 20  2  0
  2 21  1  0
  3 21  1  0
  3 31  1  0
  4 25  2  0
  4 26  1  0
  4 30  1  0
  5  6  1  0
  6  7  1  0
  7 16  1  6
  7 17  1  0
  8 14  2  0
  8 16  1  0
  9 10  1  0
 10 11  1  0
 10 16  2  0
 11 12  2  0
 12 13  1  0
 12 14  1  0
 14 15  1  0
 17 18  1  1
 17 19  1  0
 21 22  1  0
 22 23  1  0
 23 24  2  0
 23 30  1  0
 24 25  1  0
 26 27  1  0
 26 28  1  0
 26 29  1  0
 30 31  1  0
M  CHG  1  18   1
M  END
