
     RDKit          3D

 28 30  0  0  1  0  0  0  0  0999 V2000
   24.8330   -0.9400   59.7540 C   0  0  0  0  0  0  0  0  0  0  0  0
   25.9140   -1.5010   60.4600 C   0  0  0  0  0  0  0  0  0  0  0  0
   26.1870   -1.0810   61.7750 C   0  0  0  0  0  0  0  0  0  0  0  0
   25.3940   -0.0840   62.3750 C   0  0  0  0  0  0  0  0  0  0  0  0
   24.3120    0.4810   61.6730 C   0  0  0  0  0  0  0  0  0  0  0  0
   24.0330    0.0440   60.3630 C   0  0  0  0  0  0  0  0  0  0  0  0
   23.5880    1.4910   62.2550 O   0  0  0  0  0  0  0  0  0  0  0  0
   22.2320    1.3770   62.4640 C   0  0  0  0  0  0  0  0  0  0  0  0
   21.5430    2.5330   62.8870 C   0  0  0  0  0  0  0  0  0  0  0  0
   20.1730    2.4830   63.2040 C   0  0  0  0  0  0  0  0  0  0  0  0
   19.4820    1.2620   63.0860 C   0  0  0  0  0  0  0  0  0  0  0  0
   20.1440    0.1080   62.6230 C   0  0  0  0  0  0  0  0  0  0  0  0
   21.5180    0.1630   62.3300 C   0  0  0  0  0  0  0  0  0  0  0  0
   17.7700    1.1410   63.5850 S   0  0  0  0  0  0  0  0  0  0  0  0
   17.5460    2.1690   64.6100 O   0  0  0  0  0  0  0  0  0  0  0  0
   17.5320   -0.2670   63.9390 O   0  0  0  0  0  0  0  0  0  0  0  0
   16.7490    1.4920   62.0650 C   0  0  0  0  0  0  0  0  0  0  0  0
   16.4050    2.9690   61.6990 C   0  0  0  0  0  0  0  0  0  0  0  0
   15.7390    3.7320   62.8780 C   0  0  0  0  0  0  0  0  0  0  0  0
   15.0280    5.0400   62.4850 C   0  0  0  0  0  0  0  0  0  0  0  0
   14.0960    4.8090   61.4380 O   0  0  0  0  0  0  0  0  0  0  0  0
   14.7120    4.2930   60.2670 C   0  0  0  0  0  0  0  0  0  0  0  0
   15.3270    2.9150   60.5800 C   0  0  0  0  0  0  0  0  0  0  0  0
   17.6520    3.6610   61.1040 C   0  0  0  0  0  0  0  0  0  0  0  0
   18.0930    4.8180   61.5840 N   0  0  0  0  0  0  0  0  0  0  0  0
   18.2220    3.2090   60.1150 O   0  0  0  0  0  0  0  0  0  0  0  0
   18.9960    5.5250   60.8970 O   0  0  0  0  0  0  0  0  0  0  0  0
   26.9080   -2.6960   59.7140 Cl  0  0  0  0  0  0  0  0  0  0  0  0
  1  2  2  0
  1  6  1  0
  2  3  1  0
  2 28  1  0
  3  4  2  0
  4  5  1  0
  5  6  2  0
  5  7  1  0
  7  8  1  0
  8  9  2  0
  8 13  1  0
  9 10  1  0
 10 11  2  0
 11 12  1  0
 11 14  1  0
 12 13  2  0
 14 15  2  0
 14 16  2  0
 14 17  1  0
 17 18  1  0
 18 19  1  0
 18 23  1  0
 18 24  1  0
 19 20  1  0
 20 21  1  0
 21 22  1  0
 22 23  1  0
 24 25  1  0
 24 26  2  0
 25 27  1  0
M  CHG  1  27  -1
M  END
