
     RDKit          3D

 31 34  0  0  1  0  0  0  0  0999 V2000
    0.5190   28.5350   15.3890 C   0  0  0  0  0  0  0  0  0  0  0  0
   -0.1880   27.7310   16.4720 C   0  0  0  0  0  0  0  0  0  0  0  0
    0.3910   28.0730   17.7200 O   0  0  0  0  0  0  0  0  0  0  0  0
   -0.1040   27.3170   18.8190 C   0  0  2  0  0  0  0  0  0  0  0  0
   -1.5240   27.7390   19.2270 C   0  0  0  0  0  0  0  0  0  0  0  0
   -2.1980   26.9150   19.8760 O   0  0  0  0  0  0  0  0  0  0  0  0
   -1.9280   28.8740   18.8960 O   0  0  0  0  0  0  0  0  0  0  0  0
    0.8720   27.4740   19.9990 C   0  0  0  0  0  0  0  0  0  0  0  0
    2.1770   26.7330   19.7620 C   0  0  0  0  0  0  0  0  0  0  0  0
    3.1890   27.3000   18.9610 C   0  0  0  0  0  0  0  0  0  0  0  0
    2.3640   25.4580   20.3320 C   0  0  0  0  0  0  0  0  0  0  0  0
    3.5490   24.7200   20.1120 C   0  0  0  0  0  0  0  0  0  0  0  0
    4.0210   23.4440   20.5440 C   0  0  0  0  0  0  0  0  0  0  0  0
    5.2590   23.2790   19.9830 C   0  0  0  0  0  0  0  0  0  0  0  0
    4.5530   25.3120   19.2920 C   0  0  0  0  0  0  0  0  0  0  0  0
    4.3780   26.5840   18.7210 C   0  0  0  0  0  0  0  0  0  0  0  0
    5.6020   24.4040   19.2430 N   0  0  0  0  0  0  0  0  0  0  0  0
    6.8680   24.5980   18.5550 C   0  0  0  0  0  0  0  0  0  0  0  0
    6.8230   24.1720   17.1190 C   0  0  0  0  0  0  0  0  0  0  0  0
    7.2700   24.8320   16.0070 C   0  0  0  0  0  0  0  0  0  0  0  0
    7.8820   26.1710   15.7940 C   0  0  0  0  0  0  0  0  0  0  0  0
    7.0540   24.0520   14.9070 O   0  0  0  0  0  0  0  0  0  0  0  0
    6.3140   22.9490   16.7060 N   0  0  0  0  0  0  0  0  0  0  0  0
    6.4740   22.9150   15.3810 C   0  0  0  0  0  0  0  0  0  0  0  0
    6.1250   21.8190   14.4660 C   0  0  0  0  0  0  0  0  0  0  0  0
    6.4200   21.8160   13.0730 C   0  0  0  0  0  0  0  0  0  0  0  0
    7.1950   23.1280   12.2610 Cl  0  0  0  0  0  0  0  0  0  0  0  0
    6.0770   20.7000   12.2820 C   0  0  0  0  0  0  0  0  0  0  0  0
    5.4400   19.5850   12.8500 C   0  0  0  0  0  0  0  0  0  0  0  0
    5.1290   19.5840   14.2200 C   0  0  0  0  0  0  0  0  0  0  0  0
    5.4630   20.6950   15.0140 C   0  0  0  0  0  0  0  0  0  0  0  0
  1  2  1  0
  2  3  1  0
  3  4  1  0
  4  5  1  0
  4  8  1  1
  5  6  1  0
  5  7  2  0
  8  9  1  0
  9 10  2  0
  9 11  1  0
 10 16  1  0
 11 12  2  0
 12 13  1  0
 12 15  1  0
 13 14  2  0
 14 17  1  0
 15 16  2  0
 15 17  1  0
 17 18  1  0
 18 19  1  0
 19 20  2  0
 19 23  1  0
 20 21  1  0
 20 22  1  0
 22 24  1  0
 23 24  2  0
 24 25  1  0
 25 26  2  0
 25 31  1  0
 26 27  1  0
 26 28  1  0
 28 29  2  0
 29 30  1  0
 30 31  2  0
M  CHG  1   6  -1
M  END
