
     RDKit          3D

 37 41  0  0  1  0  0  0  0  0999 V2000
   47.0310   37.0650   24.0980 C   0  0  0  0  0  0  0  0  0  0  0  0
   46.3510   37.8650   24.7300 O   0  0  0  0  0  0  0  0  0  0  0  0
   48.0720   36.4490   24.6870 N   0  0  0  0  0  0  0  0  0  0  0  0
   48.8400   35.4800   24.0460 C   0  0  0  0  0  0  0  0  0  0  0  0
   49.9210   34.9100   24.9320 C   0  0  0  0  0  0  0  0  0  0  0  0
   48.6550   35.0750   22.8330 N   0  0  0  0  0  0  0  0  0  0  0  0
   47.6180   35.6760   22.1030 C   0  0  0  0  0  0  0  0  0  0  0  0
   47.4360   35.2240   20.7870 C   0  0  0  0  0  0  0  0  0  0  0  0
   46.4900   35.8240   19.9530 C   0  0  0  0  0  0  0  0  0  0  0  0
   45.6770   36.8540   20.4490 C   0  0  0  0  0  0  0  0  0  0  0  0
   44.7430   37.4230   19.5660 C   0  0  0  0  0  0  0  0  0  0  0  0
   43.8590   38.4100   20.0130 C   0  0  0  0  0  0  0  0  0  0  0  0
   43.8980   38.8290   21.3540 C   0  0  0  0  0  0  0  0  0  0  0  0
   44.8600   38.2850   22.2290 C   0  0  0  0  0  0  0  0  0  0  0  0
   45.7820   37.2920   21.8020 C   0  0  0  0  0  0  0  0  0  0  0  0
   46.7830   36.6990   22.6430 C   0  0  0  0  0  0  0  0  0  0  0  0
   42.9060   39.8570   21.8710 C   0  0  0  0  0  0  0  0  0  0  0  0
   42.6340   40.9560   20.9590 N   0  0  0  0  0  0  0  0  0  0  0  0
   43.5520   42.0020   20.7970 C   0  0  0  0  0  0  0  0  0  0  0  0
   44.8920   41.9280   21.2640 C   0  0  0  0  0  0  0  0  0  0  0  0
   45.7160   43.0510   21.0940 C   0  0  0  0  0  0  0  0  0  0  0  0
   45.2520   44.2070   20.5050 C   0  0  0  0  0  0  0  0  0  0  0  0
   43.9360   44.3030   20.0250 C   0  0  0  0  0  0  0  0  0  0  0  0
   43.0910   43.1830   20.1670 C   0  0  0  0  0  0  0  0  0  0  0  0
   47.1440   43.2650   21.5120 C   0  0  0  0  0  0  0  0  0  0  0  0
   46.3270   45.2280   20.5040 C   0  0  0  0  0  0  0  0  0  0  0  0
   46.2300   46.3560   20.0200 O   0  0  0  0  0  0  0  0  0  0  0  0
   47.3970   44.6640   21.1180 N   0  0  0  0  0  0  0  0  0  0  0  0
   48.7580   45.2120   21.2510 C   0  0  2  0  0  0  0  0  0  0  0  0
   48.8860   46.2810   22.3500 C   0  0  0  0  0  0  0  0  0  0  0  0
   49.7140   47.2030   22.1820 O   0  0  0  0  0  0  0  0  0  0  0  0
   48.1690   46.1720   23.3690 O   0  0  0  0  0  0  0  0  0  0  0  0
   49.3550   45.6380   19.8830 C   0  0  0  0  0  0  0  0  0  0  0  0
   49.3030   44.5800   18.7600 C   0  0  0  0  0  0  0  0  0  0  0  0
   50.3500   43.4650   18.8770 C   0  0  0  0  0  0  0  0  0  0  0  0
   50.6080   43.0020   20.0080 O   0  0  0  0  0  0  0  0  0  0  0  0
   50.8720   43.0770   17.8090 O   0  0  0  0  0  0  0  0  0  0  0  0
  1  2  2  0
  1  3  1  0
  1 16  1  0
  3  4  1  0
  4  5  1  0
  4  6  2  0
  6  7  1  0
  7  8  1  0
  7 16  2  0
  8  9  2  0
  9 10  1  0
 10 11  1  0
 10 15  2  0
 11 12  2  0
 12 13  1  0
 13 14  2  0
 13 17  1  0
 14 15  1  0
 15 16  1  0
 17 18  1  0
 18 19  1  0
 19 20  2  0
 19 24  1  0
 20 21  1  0
 21 22  2  0
 21 25  1  0
 22 23  1  0
 22 26  1  0
 23 24  2  0
 25 28  1  0
 26 27  2  0
 26 28  1  0
 28 29  1  0
 29 30  1  0
 29 33  1  6
 30 31  2  0
 30 32  1  0
 33 34  1  0
 34 35  1  0
 35 36  2  0
 35 37  1  0
M  CHG  2  32  -1  37  -1
M  END
