
     RDKit          3D

 19 21  0  0  1  0  0  0  0  0999 V2000
   17.5970   11.7090   59.8900 O   0  0  0  0  0  0  0  0  0  0  0  0
   16.8460   10.9050   60.7820 C   0  0  0  0  0  0  0  0  0  0  0  0
   15.3770   11.3690   60.9020 C   0  0  2  0  0  0  0  0  0  0  0  0
   14.6460   11.3170   59.5600 C   0  0  0  0  0  0  0  0  0  0  0  0
   15.2160   12.8480   61.3230 C   0  0  2  0  0  0  0  0  0  0  0  0
   14.2790   12.9990   62.3660 O   0  0  0  0  0  0  0  0  0  0  0  0
   14.6530   13.5490   60.0830 C   0  0  0  0  0  0  0  0  0  0  0  0
   14.8280   12.6350   58.9820 N   0  0  0  0  0  0  0  0  0  0  0  0
   13.9450   12.9070   57.8670 C   0  0  0  0  0  0  0  0  0  0  0  0
   14.4050   12.1490   56.6650 C   0  0  0  0  0  0  0  0  0  0  0  0
   15.4410   12.5100   55.8390 C   0  0  0  0  0  0  0  0  0  0  0  0
   15.6310   11.5040   54.9110 N   0  0  0  0  0  0  0  0  0  0  0  0
   14.7090   10.5170   55.1330 C   0  0  0  0  0  0  0  0  0  0  0  0
   14.5370    9.2500   54.4320 C   0  0  0  0  0  0  0  0  0  0  0  0
   15.2610    8.8970   53.5040 O   0  0  0  0  0  0  0  0  0  0  0  0
   13.5150    8.5220   54.9370 N   0  0  0  0  0  0  0  0  0  0  0  0
   12.7340    8.9390   56.0440 C   0  0  0  0  0  0  0  0  0  0  0  0
   12.9260   10.0620   56.6830 N   0  0  0  0  0  0  0  0  0  0  0  0
   13.9490   10.8880   56.1870 C   0  0  0  0  0  0  0  0  0  0  0  0
  1  2  1  0
  3  2  1  6
  3  4  1  0
  3  5  1  0
  4  8  1  0
  5  6  1  1
  5  7  1  0
  7  8  1  0
  8  9  1  0
  9 10  1  0
 10 11  2  0
 10 19  1  0
 11 12  1  0
 12 13  1  0
 13 14  1  0
 13 19  2  0
 14 15  2  0
 14 16  1  0
 16 17  1  0
 17 18  2  0
 18 19  1  0
M  END
