
     RDKit          3D

 43 46  0  0  1  0  0  0  0  0999 V2000
   17.0050  -77.3080    8.7030 O   0  0  0  0  0  0  0  0  0  0  0  0
   16.7450  -77.3450    7.5000 C   0  0  0  0  0  0  0  0  0  0  0  0
   15.7650  -78.1150    6.9450 O   0  0  0  0  0  0  0  0  0  0  0  0
   14.8590  -78.9440    7.6890 C   0  0  0  0  0  0  0  0  0  0  0  0
   15.5700  -80.1550    8.3170 C   0  0  0  0  0  0  0  0  0  0  0  0
   14.0840  -78.1360    8.7410 C   0  0  0  0  0  0  0  0  0  0  0  0
   13.8650  -79.4580    6.6370 C   0  0  0  0  0  0  0  0  0  0  0  0
   17.4150  -76.6090    6.5120 N   0  0  0  0  0  0  0  0  0  0  0  0
   18.5040  -75.6900    6.8390 C   0  0  0  0  0  0  0  0  0  0  0  0
   17.9580  -74.2470    6.7820 C   0  0  0  0  0  0  0  0  0  0  0  0
   16.9470  -76.4380    5.1360 C   0  0  0  0  0  0  0  0  0  0  0  0
   16.3140  -75.0500    5.0220 C   0  0  0  0  0  0  0  0  0  0  0  0
   17.3040  -73.9300    5.4170 C   0  0  0  0  0  0  0  0  0  0  0  0
   16.6230  -72.5430    5.4400 C   0  0  0  0  0  0  0  0  0  0  0  0
   15.9990  -72.1820    4.1480 N   0  0  0  0  0  0  0  0  0  0  0  0
   14.3860  -71.5170    4.1500 S   0  0  0  0  0  0  0  0  0  0  0  0
   13.9910  -71.2100    2.7660 O   0  0  0  0  0  0  0  0  0  0  0  0
   14.3580  -70.4590    5.1740 O   0  0  0  0  0  0  0  0  0  0  0  0
   13.4040  -72.9180    4.7270 C   0  0  0  0  0  0  0  0  0  0  0  0
   12.7850  -72.8100    5.9880 C   0  0  0  0  0  0  0  0  0  0  0  0
   12.1800  -73.9300    6.5860 C   0  0  0  0  0  0  0  0  0  0  0  0
   12.2000  -75.1710    5.9270 C   0  0  0  0  0  0  0  0  0  0  0  0
   12.7510  -75.2680    4.6360 C   0  0  0  0  0  0  0  0  0  0  0  0
   13.3140  -74.1360    4.0060 C   0  0  0  0  0  0  0  0  0  0  0  0
   13.7890  -74.2790    2.5760 C   0  0  0  0  0  0  0  0  0  0  0  0
   16.8740  -72.0670    2.9630 C   0  0  0  0  0  0  0  0  0  0  0  0
   17.9490  -70.9810    3.1510 C   0  0  0  0  0  0  0  0  0  0  0  0
   18.7000  -70.7190    1.9200 N   0  0  0  0  0  0  0  0  0  0  0  0
   19.8830  -71.4430    1.6090 C   0  0  0  0  0  0  0  0  0  0  0  0
   20.6810  -71.1040    0.4840 C   0  0  0  0  0  0  0  0  0  0  0  0
   21.8900  -71.7770    0.2110 C   0  0  0  0  0  0  0  0  0  0  0  0
   20.3260  -72.5160    2.4230 C   0  0  0  0  0  0  0  0  0  0  0  0
   21.5410  -73.1810    2.1620 C   0  0  0  0  0  0  0  0  0  0  0  0
   22.3360  -72.8020    1.0670 C   0  0  0  0  0  0  0  0  0  0  0  0
   23.6070  -73.4670    0.8240 C   0  0  0  0  0  0  0  0  0  0  0  0
   24.6140  -74.0010    0.6330 N   0  0  0  0  0  0  0  0  0  0  0  0
   18.2800  -69.5690    1.1150 C   0  0  0  0  0  0  0  0  0  0  0  0
   17.7150  -69.8680   -0.2630 C   0  0  0  0  0  0  0  0  0  0  0  0
   17.2690  -71.1800   -0.6330 C   0  0  0  0  0  0  0  0  0  0  0  0
   16.8310  -71.1290   -1.9040 N   0  0  0  0  0  0  0  0  0  0  0  0
   16.9940  -69.8640   -2.3100 C   0  0  0  0  0  0  0  0  0  0  0  0
   17.5080  -69.0910   -1.3360 N   0  0  0  0  0  0  0  0  0  0  0  0
   17.7950  -67.6760   -1.4320 C   0  0  0  0  0  0  0  0  0  0  0  0
  1  2  2  0
  2  3  1  0
  2  8  1  0
  3  4  1  0
  4  5  1  0
  4  6  1  0
  4  7  1  0
  8  9  1  0
  8 11  1  0
  9 10  1  0
 10 13  1  0
 11 12  1  0
 12 13  1  0
 13 14  1  0
 14 15  1  0
 15 16  1  0
 15 26  1  0
 16 17  2  0
 16 18  2  0
 16 19  1  0
 19 20  2  0
 19 24  1  0
 20 21  1  0
 21 22  2  0
 22 23  1  0
 23 24  2  0
 24 25  1  0
 26 27  1  0
 27 28  1  0
 28 29  1  0
 28 37  1  0
 29 30  2  0
 29 32  1  0
 30 31  1  0
 31 34  2  0
 32 33  2  0
 33 34  1  0
 34 35  1  0
 35 36  3  0
 37 38  1  0
 38 39  2  0
 38 42  1  0
 39 40  1  0
 40 41  2  0
 41 42  1  0
 42 43  1  0
M  END
