lingo_3d_mol_dude_nh_3odu
     RDKit          3D

 27 30  0  0  1  0  0  0  0  0999 V2000
   -9.2500   13.1620   67.3260 C   0  0  0  0  0  0  0  0  0  0  0  0
  -11.0290   14.7920   67.8010 N   0  0  0  0  0  0  0  0  0  0  0  0
  -11.6780   16.5960   69.8550 S   0  0  0  0  0  0  0  0  0  0  0  0
  -10.7040   13.3650   67.7810 C   0  0  0  0  0  0  0  0  0  0  0  0
  -11.2290   14.0980   69.9090 N   0  0  0  0  0  0  0  0  0  0  0  0
  -13.3420   12.6910   72.2710 S   0  0  0  0  0  0  0  0  0  0  0  0
  -11.6780   12.6270   66.8480 C   0  0  0  0  0  0  0  0  0  0  0  0
  -13.8570   14.7010   73.9240 N   0  0  0  0  0  0  0  0  0  0  0  0
  -11.2600   15.1170   69.0710 C   0  0  0  0  0  0  0  0  0  0  0  0
  -15.3980   14.4730   72.0820 N   0  0  0  0  0  0  0  0  0  0  0  0
  -11.7800   15.7200   71.3720 C   0  0  0  0  0  0  0  0  0  0  0  0
  -10.9020   12.8730   69.2310 C   0  0  0  0  0  0  0  0  0  0  0  0
  -11.5400   14.3690   71.2330 C   0  0  0  0  0  0  0  0  0  0  0  0
  -11.6550   13.3520   72.3280 C   0  0  0  0  0  0  0  0  0  0  0  0
  -14.3170   14.1060   72.8030 C   0  0  0  0  0  0  0  0  0  0  0  0
  -14.2820   15.9320   74.6180 C   0  0  0  0  0  0  0  0  0  0  0  0
  -15.3250   15.6450   75.7060 C   0  0  0  0  0  0  0  0  0  0  0  0
  -15.6290   16.9080   76.5250 C   0  0  0  0  0  0  0  0  0  0  0  0
  -16.0960   18.0480   75.6040 C   0  0  0  0  0  0  0  0  0  0  0  0
  -15.0590   18.3390   74.5040 C   0  0  0  0  0  0  0  0  0  0  0  0
  -14.7370   17.0750   73.6910 C   0  0  0  0  0  0  0  0  0  0  0  0
  -15.8650   14.0540   70.7430 C   0  0  0  0  0  0  0  0  0  0  0  0
  -14.8040   14.1710   69.6410 C   0  0  0  0  0  0  0  0  0  0  0  0
  -15.4570   13.9650   68.2710 C   0  0  0  0  0  0  0  0  0  0  0  0
  -16.2090   12.6290   68.1880 C   0  0  0  0  0  0  0  0  0  0  0  0
  -17.2390   12.4930   69.3220 C   0  0  0  0  0  0  0  0  0  0  0  0
  -16.5840   12.6990   70.7000 C   0  0  0  0  0  0  0  0  0  0  0  0
  1  4  1  0
  2  4  1  0
  2  9  2  0
  3  9  1  0
  3 11  1  0
  4  7  1  0
  4 12  1  0
  5  9  1  0
  5 12  1  0
  5 13  1  0
  6 14  1  0
  6 15  1  0
  8 15  1  0
  8 16  1  0
 10 15  2  0
 10 22  1  0
 11 13  2  0
 13 14  1  0
 16 17  1  0
 16 21  1  0
 17 18  1  0
 18 19  1  0
 19 20  1  0
 20 21  1  0
 22 23  1  0
 22 27  1  0
 23 24  1  0
 24 25  1  0
 25 26  1  0
 26 27  1  0
M  CHG  4   2   1   5   1   8   1  10   1
M  END
