
     RDKit          3D

 22 24  0  0  1  0  0  0  0  0999 V2000
    4.5470   31.0120   58.2870 C   0  0  0  0  0  0  0  0  0  0  0  0
    5.3480   32.1800   58.8730 C   0  0  0  0  0  0  0  0  0  0  0  0
    6.8250   32.0890   58.4500 C   0  0  0  0  0  0  0  0  0  0  0  0
    7.4390   30.7570   58.9200 C   0  0  0  0  0  0  0  0  0  0  0  0
    6.6450   29.5670   58.3600 C   0  0  0  0  0  0  0  0  0  0  0  0
    5.1530   29.6670   58.7280 C   0  0  0  0  0  0  0  0  0  0  0  0
    8.6780   33.7480   58.2400 C   0  0  0  0  0  0  0  0  0  0  0  0
    9.4830   34.6840   59.1230 C   0  0  0  0  0  0  0  0  0  0  0  0
    8.9170   34.3890   60.5190 C   0  0  1  0  0  0  0  0  0  0  0  0
    7.5200   33.7940   60.2320 C   0  0  0  0  0  0  0  0  0  0  0  0
    7.6340   33.2270   58.8980 N   0  0  0  0  0  0  0  0  0  0  0  0
    9.8430   33.4140   61.2610 C   0  0  0  0  0  0  0  0  0  0  0  0
   10.9430   33.9480   61.8160 N   0  0  0  0  0  0  0  0  0  0  0  0
    9.5390   32.2280   61.3300 O   0  0  0  0  0  0  0  0  0  0  0  0
    9.0090   33.4870   57.0880 O   0  0  0  0  0  0  0  0  0  0  0  0
   12.8780   29.5900   64.2700 Br  0  0  0  0  0  0  0  0  0  0  0  0
   11.9160   31.9750   63.0050 C   0  0  0  0  0  0  0  0  0  0  0  0
   13.0410   31.3550   63.5760 C   0  0  0  0  0  0  0  0  0  0  0  0
   14.2670   32.0420   63.6320 C   0  0  0  0  0  0  0  0  0  0  0  0
   14.3690   33.3440   63.1070 C   0  0  0  0  0  0  0  0  0  0  0  0
   13.2490   33.9570   62.5180 C   0  0  0  0  0  0  0  0  0  0  0  0
   12.0190   33.2740   62.4500 C   0  0  0  0  0  0  0  0  0  0  0  0
  1  2  1  0
  1  6  1  0
  2  3  1  0
  3  4  1  0
  3 11  1  0
  4  5  1  0
  5  6  1  0
  7  8  1  0
  7 11  1  0
  7 15  2  0
  8  9  1  0
  9 10  1  0
  9 12  1  6
 10 11  1  0
 12 13  1  0
 12 14  2  0
 13 22  1  0
 16 18  1  0
 17 18  2  0
 17 22  1  0
 18 19  1  0
 19 20  2  0
 20 21  1  0
 21 22  2  0
M  END
