
     RDKit          3D

 28 30  0  0  1  0  0  0  0  0999 V2000
   25.5160    8.8350   60.9500 C   0  0  0  0  0  0  0  0  0  0  0  0
   25.1190    8.0330   59.8630 C   0  0  0  0  0  0  0  0  0  0  0  0
   25.5880    6.7090   59.7540 C   0  0  0  0  0  0  0  0  0  0  0  0
   26.4490    6.1840   60.7360 C   0  0  0  0  0  0  0  0  0  0  0  0
   26.8400    6.9830   61.8270 C   0  0  0  0  0  0  0  0  0  0  0  0
   26.3830    8.3140   61.9340 C   0  0  0  0  0  0  0  0  0  0  0  0
   26.7970    9.1770   63.1100 C   0  0  0  0  0  0  0  0  0  0  0  0
   28.2540    9.6180   63.0670 C   0  0  0  0  0  0  0  0  0  0  0  0
   28.5910   10.8430   62.4420 C   0  0  0  0  0  0  0  0  0  0  0  0
   29.2650    8.8550   63.6990 C   0  0  0  0  0  0  0  0  0  0  0  0
   28.9860    7.6620   64.3030 O   0  0  0  0  0  0  0  0  0  0  0  0
   30.5870    9.3310   63.7300 C   0  0  0  0  0  0  0  0  0  0  0  0
   30.8910   10.5910   63.1890 C   0  0  0  0  0  0  0  0  0  0  0  0
   29.8940   11.3740   62.5690 C   0  0  0  0  0  0  0  0  0  0  0  0
   30.3180   12.7310   62.0130 C   0  0  0  0  0  0  0  0  0  0  0  0
   29.4100   13.9810   61.9440 C   0  0  0  0  0  0  0  0  0  0  0  0
   28.2630   14.2440   62.7600 C   0  0  0  0  0  0  0  0  0  0  0  0
   27.7970   13.3630   63.9070 C   0  0  0  0  0  0  0  0  0  0  0  0
   27.5250   15.4350   62.5820 C   0  0  0  0  0  0  0  0  0  0  0  0
   29.8250   15.0040   61.0400 C   0  0  0  0  0  0  0  0  0  0  0  0
   31.1110   14.8930   60.2340 C   0  0  0  0  0  0  0  0  0  0  0  0
   29.0790   16.1890   60.8940 C   0  0  0  0  0  0  0  0  0  0  0  0
   27.9330   16.4250   61.6640 C   0  0  0  0  0  0  0  0  0  0  0  0
   27.3130   17.6490   61.5090 O   0  0  0  0  0  0  0  0  0  0  0  0
   26.6160   18.2150   62.6230 C   0  0  0  0  0  0  0  0  0  0  0  0
   27.5580   18.7010   63.7400 C   0  0  0  0  0  0  0  0  0  0  0  0
   28.7910   18.5390   63.6040 O   0  0  0  0  0  0  0  0  0  0  0  0
   27.0250   19.2380   64.7350 O   0  0  0  0  0  0  0  0  0  0  0  0
  1  2  2  0
  1  6  1  0
  2  3  1  0
  3  4  2  0
  4  5  1  0
  5  6  2  0
  6  7  1  0
  7  8  1  0
  8  9  2  0
  8 10  1  0
  9 14  1  0
 10 11  1  0
 10 12  2  0
 12 13  1  0
 13 14  2  0
 14 15  1  0
 15 16  1  0
 16 17  2  0
 16 20  1  0
 17 18  1  0
 17 19  1  0
 19 23  2  0
 20 21  1  0
 20 22  2  0
 22 23  1  0
 23 24  1  0
 24 25  1  0
 25 26  1  0
 26 27  1  0
 26 28  2  0
M  CHG  1  27  -1
M  END
