
     RDKit          3D

 21 22  0  0  1  0  0  0  0  0999 V2000
   -0.3350   12.7880   33.2620 N   0  0  0  0  0  0  0  0  0  0  0  0
   -5.1440   12.6150   28.8890 C   0  0  0  0  0  0  0  0  0  0  0  0
    0.8190    6.9600   34.4550 N   0  0  0  0  0  0  0  0  0  0  0  0
   -3.2150   13.7650   27.9370 C   0  0  0  0  0  0  0  0  0  0  0  0
   -2.5100   13.6320   29.1540 C   0  0  0  0  0  0  0  0  0  0  0  0
   -3.1400   12.9630   30.2330 C   0  0  0  0  0  0  0  0  0  0  0  0
    0.9590    6.2070   35.6620 O   0  0  0  0  0  0  0  0  0  0  0  0
    0.0990    8.5520   35.9470 O   0  0  0  0  0  0  0  0  0  0  0  0
    0.9070   13.1160   28.8780 O   0  0  0  0  0  0  0  0  0  0  0  0
   -4.4460   12.4520   30.0980 C   0  0  0  0  0  0  0  0  0  0  0  0
   -4.5250   13.2630   27.8050 C   0  0  0  0  0  0  0  0  0  0  0  0
   -1.1400   14.3040   29.2980 C   0  0  0  0  0  0  0  0  0  0  0  0
    0.0260   13.3840   29.6920 C   0  0  0  0  0  0  0  0  0  0  0  0
    0.0410   12.8460   31.0670 C   0  0  0  0  0  0  0  0  0  0  0  0
   -0.3680   13.5890   32.1380 C   0  0  0  0  0  0  0  0  0  0  0  0
   -0.7640   13.2180   34.5760 C   0  0  0  0  0  0  0  0  0  0  0  0
    0.1370   11.5330   32.9030 C   0  0  0  0  0  0  0  0  0  0  0  0
    0.4580   11.5830   31.5750 C   0  0  0  0  0  0  0  0  0  0  0  0
    0.1790   10.4720   33.8610 C   0  0  0  0  0  0  0  0  0  0  0  0
    0.6120    9.2080   33.7150 C   0  0  0  0  0  0  0  0  0  0  0  0
    0.4730    8.2580   34.8080 C   0  0  0  0  0  0  0  0  0  0  0  0
  1 15  1  0
  1 16  1  0
  1 17  1  0
  2 10  2  0
  2 11  1  0
  3  7  1  0
  3 21  1  0
  4  5  1  0
  4 11  2  0
  5  6  2  0
  5 12  1  0
  6 10  1  0
  8 21  2  0
  9 13  2  0
 12 13  1  0
 13 14  1  0
 14 15  2  0
 14 18  1  0
 17 18  2  0
 17 19  1  0
 19 20  2  0
 20 21  1  0
M  CHG  1   7  -1
M  END
