
     RDKit          3D

 22 24  0  0  1  0  0  0  0  0999 V2000
   47.3680   18.3410  -42.6990 N   0  0  0  0  0  0  0  0  0  0  0  0
   48.3830   17.7580  -43.4810 C   0  0  0  0  0  0  0  0  0  0  0  0
   49.1100   18.5830  -44.3570 C   0  0  0  0  0  0  0  0  0  0  0  0
   50.1490   18.0420  -45.1350 C   0  0  0  0  0  0  0  0  0  0  0  0
   50.4700   16.6720  -45.0700 C   0  0  0  0  0  0  0  0  0  0  0  0
   49.7490   15.8600  -44.1670 C   0  0  0  0  0  0  0  0  0  0  0  0
   48.7090   16.3840  -43.3720 C   0  0  0  0  0  0  0  0  0  0  0  0
   48.0890   15.5110  -42.4370 N   0  0  0  0  0  0  0  0  0  0  0  0
   46.7710   15.3470  -42.2430 C   0  0  0  0  0  0  0  0  0  0  0  0
   45.9250   15.8390  -42.9890 O   0  0  0  0  0  0  0  0  0  0  0  0
   46.3730   14.4470  -41.1100 C   0  0  0  0  0  0  0  0  0  0  0  0
   47.1490   14.3760  -39.9320 C   0  0  0  0  0  0  0  0  0  0  0  0
   46.7560   13.5430  -38.8670 C   0  0  0  0  0  0  0  0  0  0  0  0
   45.5670   12.7970  -38.9570 C   0  0  0  0  0  0  0  0  0  0  0  0
   44.7720   12.8860  -40.1140 C   0  0  0  0  0  0  0  0  0  0  0  0
   45.1730   13.7070  -41.1850 C   0  0  0  0  0  0  0  0  0  0  0  0
   51.5330   16.1100  -45.9250 C   0  0  0  0  0  0  0  0  0  0  0  0
   52.4330   15.1410  -45.4250 C   0  0  0  0  0  0  0  0  0  0  0  0
   53.4370   14.5940  -46.2470 C   0  0  0  0  0  0  0  0  0  0  0  0
   53.5470   14.9940  -47.5900 C   0  0  0  0  0  0  0  0  0  0  0  0
   52.6640   15.9600  -48.1020 C   0  0  0  0  0  0  0  0  0  0  0  0
   51.6740   16.5190  -47.2710 C   0  0  0  0  0  0  0  0  0  0  0  0
  1  2  1  0
  2  3  2  0
  2  7  1  0
  3  4  1  0
  4  5  2  0
  5  6  1  0
  5 17  1  0
  6  7  2  0
  7  8  1  0
  8  9  1  0
  9 10  2  0
  9 11  1  0
 11 12  2  0
 11 16  1  0
 12 13  1  0
 13 14  2  0
 14 15  1  0
 15 16  2  0
 17 18  2  0
 17 22  1  0
 18 19  1  0
 19 20  2  0
 20 21  1  0
 21 22  2  0
M  END
