
     RDKit          3D

 41 44  0  0  1  0  0  0  0  0999 V2000
   25.9660   -1.0150   19.6690 C   0  0  0  0  0  0  0  0  0  0  0  0
   24.5960   -0.6930   19.6930 C   0  0  0  0  0  0  0  0  0  0  0  0
   23.6630   -1.5540   19.0890 C   0  0  0  0  0  0  0  0  0  0  0  0
   24.1130   -2.7330   18.4610 C   0  0  0  0  0  0  0  0  0  0  0  0
   22.9270   -3.8710   17.7710 S   0  0  0  0  0  0  0  0  0  0  0  0
   21.6100   -3.5720   18.3500 O   0  0  0  0  0  0  0  0  0  0  0  0
   23.4840   -5.2210   17.8870 O   0  0  0  0  0  0  0  0  0  0  0  0
   22.9050   -3.4740   16.0860 N   0  0  0  0  0  0  0  0  0  0  0  0
   22.6600   -2.1000   15.6310 C   0  0  0  0  0  0  0  0  0  0  0  0
   21.2560   -1.5630   15.9800 C   0  0  2  0  0  0  0  0  0  0  0  0
   20.1350   -2.2800   15.1970 C   0  0  1  0  0  0  0  0  0  0  0  0
   18.7030   -2.1710   15.7650 C   0  0  0  0  0  0  0  0  0  0  0  0
   18.6280   -2.6130   17.1600 N   0  0  0  0  0  0  0  0  0  0  0  0
   18.6850   -1.7110   18.1720 C   0  0  0  0  0  0  0  0  0  0  0  0
   18.7140   -0.4960   17.9630 O   0  0  0  0  0  0  0  0  0  0  0  0
   18.7610   -2.1910   19.6250 C   0  0  0  0  0  0  0  0  0  0  0  0
   18.3810   -1.1040   20.4530 O   0  0  0  0  0  0  0  0  0  0  0  0
   18.0540   -1.4080   21.7470 C   0  0  0  0  0  0  0  0  0  0  0  0
   18.9100   -0.9520   22.7720 C   0  0  0  0  0  0  0  0  0  0  0  0
   20.2000   -0.2320   22.4260 C   0  0  0  0  0  0  0  0  0  0  0  0
   18.5620   -1.1590   24.1200 C   0  0  0  0  0  0  0  0  0  0  0  0
   17.3810   -1.8470   24.4500 C   0  0  0  0  0  0  0  0  0  0  0  0
   16.5280   -2.3070   23.4310 C   0  0  0  0  0  0  0  0  0  0  0  0
   16.8450   -2.0700   22.0790 C   0  0  0  0  0  0  0  0  0  0  0  0
   15.8540   -2.5060   21.0180 C   0  0  0  0  0  0  0  0  0  0  0  0
   20.2110   -1.5790   13.8470 C   0  0  0  0  0  0  0  0  0  0  0  0
   20.5640   -0.1850   14.1540 N   0  0  0  0  0  0  0  0  0  0  0  0
   21.1130   -0.1150   15.5150 C   0  0  0  0  0  0  0  0  0  0  0  0
   25.4820   -3.0580   18.4300 C   0  0  0  0  0  0  0  0  0  0  0  0
   26.4110   -2.1990   19.0450 C   0  0  0  0  0  0  0  0  0  0  0  0
   21.4750   -5.9660   15.0700 C   0  0  0  0  0  0  0  0  0  0  0  0
   22.4090   -5.0740   14.2340 C   0  0  0  0  0  0  0  0  0  0  0  0
   23.4990   -4.3940   15.0900 C   0  0  0  0  0  0  0  0  0  0  0  0
   23.0290   -5.8820   13.0890 C   0  0  0  0  0  0  0  0  0  0  0  0
   18.4470   -4.0620   17.3340 C   0  0  0  0  0  0  0  0  0  0  0  0
   17.0720   -4.4680   17.8430 C   0  0  0  0  0  0  0  0  0  0  0  0
   16.9380   -5.6460   18.6040 C   0  0  0  0  0  0  0  0  0  0  0  0
   15.6910   -6.0000   19.1490 C   0  0  0  0  0  0  0  0  0  0  0  0
   14.5720   -5.1740   18.9370 C   0  0  0  0  0  0  0  0  0  0  0  0
   14.6930   -4.0090   18.1580 C   0  0  0  0  0  0  0  0  0  0  0  0
   15.9350   -3.6690   17.5960 C   0  0  0  0  0  0  0  0  0  0  0  0
  1  2  2  0
  1 30  1  0
  2  3  1  0
  3  4  2  0
  4  5  1  0
  4 29  1  0
  5  6  2  0
  5  7  2  0
  5  8  1  0
  8  9  1  0
  8 33  1  0
 10  9  1  6
 10 11  1  0
 10 28  1  0
 11 12  1  1
 11 26  1  0
 12 13  1  0
 13 14  1  0
 13 35  1  0
 14 15  2  0
 14 16  1  0
 16 17  1  0
 17 18  1  0
 18 19  2  0
 18 24  1  0
 19 20  1  0
 19 21  1  0
 21 22  2  0
 22 23  1  0
 23 24  2  0
 24 25  1  0
 26 27  1  0
 27 28  1  0
 29 30  2  0
 31 32  1  0
 32 33  1  0
 32 34  1  0
 35 36  1  0
 36 37  2  0
 36 41  1  0
 37 38  1  0
 38 39  2  0
 39 40  1  0
 40 41  2  0
M  CHG  1  27   1
M  END
