
     RDKit          3D

 32 35  0  0  1  0  0  0  0  0999 V2000
   57.1910   20.1890   36.1930 O   0  0  0  0  0  0  0  0  0  0  0  0
   58.2610   20.7890   36.2680 C   0  0  0  0  0  0  0  0  0  0  0  0
   59.4120   20.1350   36.0830 N   0  0  0  0  0  0  0  0  0  0  0  0
   58.3600   22.2700   36.5830 C   0  0  0  0  0  0  0  0  0  0  0  0
   59.4660   22.6980   37.5280 C   0  0  0  0  0  0  0  0  0  0  0  0
   59.5750   23.0320   36.0670 C   0  0  0  0  0  0  0  0  0  0  0  0
   57.0150   23.0070   36.6220 C   0  0  0  0  0  0  0  0  0  0  0  0
   55.9900   22.4120   37.5160 N   0  0  1  0  0  0  0  0  0  0  0  0
   56.4280   22.2910   38.9340 C   0  0  0  0  0  0  0  0  0  0  0  0
   55.3820   21.5310   39.7580 C   0  0  0  0  0  0  0  0  0  0  0  0
   54.6840   23.1090   37.3940 C   0  0  0  0  0  0  0  0  0  0  0  0
   53.5940   22.3880   38.1990 C   0  0  0  0  0  0  0  0  0  0  0  0
   54.0230   22.2470   39.6690 C   0  0  1  0  0  0  0  0  0  0  0  0
   52.9640   21.6380   40.5050 N   0  0  0  0  0  0  0  0  0  0  0  0
   52.9810   20.1970   40.5910 C   0  0  0  0  0  0  0  0  0  0  0  0
   52.4660   19.3670   39.4300 C   0  0  0  0  0  0  0  0  0  0  0  0
   51.6830   19.4240   40.7120 C   0  0  0  0  0  0  0  0  0  0  0  0
   52.2920   22.3880   41.4140 C   0  0  0  0  0  0  0  0  0  0  0  0
   51.7510   21.9250   42.4110 O   0  0  0  0  0  0  0  0  0  0  0  0
   52.1210   23.8490   41.1540 C   0  0  0  0  0  0  0  0  0  0  0  0
   52.8000   24.7920   41.9500 C   0  0  0  0  0  0  0  0  0  0  0  0
   52.5960   26.1670   41.7410 C   0  0  0  0  0  0  0  0  0  0  0  0
   51.2480   24.2850   40.1410 C   0  0  0  0  0  0  0  0  0  0  0  0
   51.0420   25.6600   39.9340 C   0  0  0  0  0  0  0  0  0  0  0  0
   51.7070   26.6170   40.7380 C   0  0  0  0  0  0  0  0  0  0  0  0
   51.5050   28.1160   40.4950 C   0  0  2  0  0  0  0  0  0  0  0  0
   51.2510   28.8800   41.8100 C   0  0  0  0  0  0  0  0  0  0  0  0
   50.3590   28.3700   39.7040 O   0  0  0  0  0  0  0  0  0  0  0  0
   52.7140   28.6980   39.7250 C   0  0  0  0  0  0  0  0  0  0  0  0
   52.5000   29.9730   39.3970 F   0  0  0  0  0  0  0  0  0  0  0  0
   52.9320   27.9870   38.6190 F   0  0  0  0  0  0  0  0  0  0  0  0
   53.8190   28.6460   40.4710 F   0  0  0  0  0  0  0  0  0  0  0  0
  1  2  2  0
  2  3  1  0
  2  4  1  0
  4  5  1  0
  4  6  1  0
  4  7  1  0
  5  6  1  0
  8  7  1  6
  8  9  1  0
  8 11  1  0
  9 10  1  0
 10 13  1  0
 11 12  1  0
 12 13  1  0
 13 14  1  1
 14 15  1  0
 14 18  1  0
 15 16  1  0
 15 17  1  0
 16 17  1  0
 18 19  2  0
 18 20  1  0
 20 21  2  0
 20 23  1  0
 21 22  1  0
 22 25  2  0
 23 24  2  0
 24 25  1  0
 25 26  1  0
 26 27  1  1
 26 28  1  0
 26 29  1  0
 29 30  1  0
 29 31  1  0
 29 32  1  0
M  CHG  1   8   1
M  END
