
     RDKit          3D

 27 27  0  0  1  0  0  0  0  0999 V2000
   33.2840   54.6120   25.5150 C   0  0  0  0  0  0  0  0  0  0  0  0
   32.5000   54.2680   26.7760 C   0  0  0  0  0  0  0  0  0  0  0  0
   32.3750   55.0880   27.6810 O   0  0  0  0  0  0  0  0  0  0  0  0
   32.0460   53.0200   26.8790 N   0  0  0  0  0  0  0  0  0  0  0  0
   31.5590   52.4910   28.0050 O   0  0  0  0  0  0  0  0  0  0  0  0
   34.7910   54.5950   25.8070 C   0  0  2  0  0  0  0  0  0  0  0  0
   35.5300   55.4850   24.8180 C   0  0  0  0  0  0  0  0  0  0  0  0
   35.4170   55.2980   23.6120 O   0  0  0  0  0  0  0  0  0  0  0  0
   35.3730   53.1680   25.7880 C   0  0  0  0  0  0  0  0  0  0  0  0
   36.8550   53.1280   26.1880 C   0  0  0  0  0  0  0  0  0  0  0  0
   37.4210   51.7120   26.2280 C   0  0  0  0  0  0  0  0  0  0  0  0
   38.8070   51.6690   26.8810 C   0  0  0  0  0  0  0  0  0  0  0  0
   39.9190   52.2590   26.0010 C   0  0  0  0  0  0  0  0  0  0  0  0
   36.3200   56.4190   25.3480 N   0  0  0  0  0  0  0  0  0  0  0  0
   37.2150   57.2760   24.5900 C   0  0  1  0  0  0  0  0  0  0  0  0
   36.9900   58.7300   25.0810 C   0  0  0  0  0  0  0  0  0  0  0  0
   38.0060   59.7240   24.5010 C   0  0  0  0  0  0  0  0  0  0  0  0
   35.5580   59.2140   24.7670 C   0  0  0  0  0  0  0  0  0  0  0  0
   38.6540   56.7860   24.8670 C   0  0  0  0  0  0  0  0  0  0  0  0
   39.0370   56.7080   26.0320 O   0  0  0  0  0  0  0  0  0  0  0  0
   39.4790   56.4890   23.8410 N   0  0  0  0  0  0  0  0  0  0  0  0
   40.9240   56.2710   23.9990 C   0  0  1  0  0  0  0  0  0  0  0  0
   39.0600   56.1820   22.4760 C   0  0  0  0  0  0  0  0  0  0  0  0
   40.1500   55.2670   21.9300 C   0  0  0  0  0  0  0  0  0  0  0  0
   41.4090   55.7270   22.6450 C   0  0  0  0  0  0  0  0  0  0  0  0
   41.6330   57.5900   24.3810 C   0  0  0  0  0  0  0  0  0  0  0  0
   43.0280   57.4130   24.4880 O   0  0  0  0  0  0  0  0  0  0  0  0
  1  2  1  0
  6  1  1  6
  2  3  2  0
  2  4  1  0
  4  5  1  0
  6  7  1  0
  6  9  1  0
  7  8  2  0
  7 14  1  0
  9 10  1  0
 10 11  1  0
 11 12  1  0
 12 13  1  0
 15 14  1  1
 15 16  1  0
 15 19  1  0
 16 17  1  0
 16 18  1  0
 19 20  2  0
 19 21  1  0
 21 22  1  0
 21 23  1  0
 22 25  1  0
 22 26  1  6
 23 24  1  0
 24 25  1  0
 26 27  1  0
M  CHG  1   5  -1
M  END
