lingo_3d_mol_dude_nh_3l5d
     RDKit          3D

 28 29  0  0  1  0  0  0  0  0999 V2000
   22.3990   34.5330   56.0020 C   0  0  2  0  0  0  0  0  0  0  0  0
   21.7930   35.5710   56.8390 N   0  0  0  0  0  0  0  0  0  0  0  0
   22.7860   32.2020   56.7440 O   0  0  0  0  0  0  0  0  0  0  0  0
   21.4200   35.0800   58.0270 C   0  0  0  0  0  0  0  0  0  0  0  0
   21.7410   33.7810   58.1560 N   0  0  0  0  0  0  0  0  0  0  0  0
   14.4750   30.7940   58.8890 O   0  0  0  0  0  0  0  0  0  0  0  0
   22.3760   33.3440   56.9580 C   0  0  0  0  0  0  0  0  0  0  0  0
   20.7910   35.8210   58.9520 N   0  0  0  0  0  0  0  0  0  0  0  0
   23.8460   34.9310   55.6510 C   0  0  0  0  0  0  0  0  0  0  0  0
   15.7220   30.1720   57.1050 N   0  0  0  0  0  0  0  0  0  0  0  0
   21.5700   34.2810   54.7090 C   0  0  0  0  0  0  0  0  0  0  0  0
   13.8050   31.3340   56.8110 N   0  0  0  0  0  0  0  0  0  0  0  0
   20.1180   33.7350   54.8360 C   0  0  0  0  0  0  0  0  0  0  0  0
   19.6420   33.1880   53.4800 C   0  0  0  0  0  0  0  0  0  0  0  0
   19.1050   34.7750   55.3500 C   0  0  0  0  0  0  0  0  0  0  0  0
   21.3860   32.8890   59.2700 C   0  0  0  0  0  0  0  0  0  0  0  0
   20.1850   32.0250   58.9320 C   0  0  0  0  0  0  0  0  0  0  0  0
   20.2460   30.6250   59.0850 C   0  0  0  0  0  0  0  0  0  0  0  0
   19.1400   29.8270   58.7370 C   0  0  0  0  0  0  0  0  0  0  0  0
   17.9680   30.4150   58.2170 C   0  0  0  0  0  0  0  0  0  0  0  0
   17.9120   31.8190   58.0670 C   0  0  0  0  0  0  0  0  0  0  0  0
   19.0100   32.6180   58.4300 C   0  0  0  0  0  0  0  0  0  0  0  0
   16.8030   29.5110   57.8300 C   0  0  0  0  0  0  0  0  0  0  0  0
   13.9810   31.5790   55.3800 C   0  0  0  0  0  0  0  0  0  0  0  0
   14.7880   32.8610   55.1130 C   0  0  0  0  0  0  0  0  0  0  0  0
   14.1080   34.1340   55.6330 C   0  0  0  0  0  0  0  0  0  0  0  0
   14.6650   30.7710   57.6740 C   0  0  0  0  0  0  0  0  0  0  0  0
   14.7810   35.4060   55.1060 C   0  0  0  0  0  0  0  0  0  0  0  0
  1  2  1  0
  1  7  1  0
  1  9  1  6
  1 11  1  0
  2  4  1  0
  3  7  2  0
  4  5  1  0
  4  8  2  0
  5  7  1  0
  5 16  1  0
  6 27  2  0
 10 23  1  0
 10 27  1  0
 11 13  1  0
 12 24  1  0
 12 27  1  0
 13 14  1  0
 13 15  1  0
 16 17  1  0
 17 18  2  0
 17 22  1  0
 18 19  1  0
 19 20  2  0
 20 21  1  0
 20 23  1  0
 21 22  2  0
 24 25  1  0
 25 26  1  0
 26 28  1  0
M  CHG  2   2   1   8   1
M  END
