
     RDKit          3D

 29 32  0  0  1  0  0  0  0  0999 V2000
   17.8920   -9.4590   15.0360 C   0  0  0  0  0  0  0  0  0  0  0  0
   18.2400  -10.1320   14.0650 O   0  0  0  0  0  0  0  0  0  0  0  0
   16.8550   -9.9620   16.0010 C   0  0  0  0  0  0  0  0  0  0  0  0
   16.4740   -9.1520   17.0970 C   0  0  0  0  0  0  0  0  0  0  0  0
   17.1510   -7.8470   17.2670 C   0  0  0  0  0  0  0  0  0  0  0  0
   16.2360  -11.2140   15.8040 C   0  0  0  0  0  0  0  0  0  0  0  0
   15.2440  -11.6600   16.6940 C   0  0  0  0  0  0  0  0  0  0  0  0
   14.8620  -10.8600   17.7860 C   0  0  0  0  0  0  0  0  0  0  0  0
   15.4710   -9.6080   17.9820 C   0  0  0  0  0  0  0  0  0  0  0  0
   18.3400   -8.1980   15.2840 N   0  0  0  0  0  0  0  0  0  0  0  0
   18.0180   -7.4520   16.3970 N   0  0  0  0  0  0  0  0  0  0  0  0
   19.1030   -7.4480   14.2840 C   0  0  0  0  0  0  0  0  0  0  0  0
   18.1520   -6.6920   13.4000 C   0  0  0  0  0  0  0  0  0  0  0  0
   16.2580   -5.8190   12.0840 C   0  0  0  0  0  0  0  0  0  0  0  0
   17.5320   -5.2470   11.8130 C   0  0  0  0  0  0  0  0  0  0  0  0
   15.1040   -5.4280   11.3930 C   0  0  0  0  0  0  0  0  0  0  0  0
   15.1980   -4.4130   10.4330 C   0  0  0  0  0  0  0  0  0  0  0  0
   16.4360   -3.7960   10.1620 C   0  0  0  0  0  0  0  0  0  0  0  0
   17.5990   -4.2390   10.8290 C   0  0  0  0  0  0  0  0  0  0  0  0
   18.5870   -5.7390   12.5700 N   0  0  0  0  0  0  0  0  0  0  0  0
   16.4020   -6.9860   13.3700 S   0  0  0  0  0  0  0  0  0  0  0  0
   16.8400   -6.9200   18.4090 C   0  0  0  0  0  0  0  0  0  0  0  0
   15.5110   -6.1890   18.2410 C   0  0  0  0  0  0  0  0  0  0  0  0
   15.0020   -6.0680   17.1030 O   0  0  0  0  0  0  0  0  0  0  0  0
   15.0160   -5.7400   19.2960 O   0  0  0  0  0  0  0  0  0  0  0  0
   16.4920   -2.6320    9.1930 C   0  0  0  0  0  0  0  0  0  0  0  0
   15.6340   -1.6870    9.5720 F   0  0  0  0  0  0  0  0  0  0  0  0
   16.1650   -3.0440    7.9750 F   0  0  0  0  0  0  0  0  0  0  0  0
   17.7130   -2.1060    9.1520 F   0  0  0  0  0  0  0  0  0  0  0  0
  1  2  2  0
  1  3  1  0
  1 10  1  0
  3  4  2  0
  3  6  1  0
  4  5  1  0
  4  9  1  0
  5 11  2  0
  5 22  1  0
  6  7  2  0
  7  8  1  0
  8  9  2  0
 10 11  1  0
 10 12  1  0
 12 13  1  0
 13 20  2  0
 13 21  1  0
 14 15  1  0
 14 16  2  0
 14 21  1  0
 15 19  2  0
 15 20  1  0
 16 17  1  0
 17 18  2  0
 18 19  1  0
 18 26  1  0
 22 23  1  0
 23 24  2  0
 23 25  1  0
 26 27  1  0
 26 28  1  0
 26 29  1  0
M  CHG  1  25  -1
M  END
