
     RDKit          3D

 19 22  0  0  1  0  0  0  0  0999 V2000
    3.5470    3.5940   15.7610 C   0  0  0  0  0  0  0  0  0  0  0  0
    4.6470    5.5070   15.9810 C   0  0  0  0  0  0  0  0  0  0  0  0
    4.7060    2.8090   16.0240 C   0  0  0  0  0  0  0  0  0  0  0  0
    8.3850    3.4520   19.2000 C   0  0  0  0  0  0  0  0  0  0  0  0
    2.5190    2.7210   15.5000 N   0  0  0  0  0  0  0  0  0  0  0  0
    8.5880    4.4920   18.1590 C   0  0  0  0  0  0  0  0  0  0  0  0
    5.3450    0.0960   15.9050 Cl  0  0  0  0  0  0  0  0  0  0  0  0
    4.3050    1.4340   15.8280 C   0  0  0  0  0  0  0  0  0  0  0  0
    2.9790    1.4220   15.5000 C   0  0  0  0  0  0  0  0  0  0  0  0
    3.4670    4.9500   15.7310 N   0  0  0  0  0  0  0  0  0  0  0  0
    5.8730    3.5600   16.3580 C   0  0  0  0  0  0  0  0  0  0  0  0
    5.8010    4.9130   16.2800 N   0  0  0  0  0  0  0  0  0  0  0  0
    7.0970    2.9870   16.7610 N   0  0  0  0  0  0  0  0  0  0  0  0
    6.9980    1.9170   17.7690 C   0  0  0  0  0  0  0  0  0  0  0  0
    7.6890    2.2990   19.0170 C   0  0  0  0  0  0  0  0  0  0  0  0
    7.7810    1.5880   20.1790 N   0  0  0  0  0  0  0  0  0  0  0  0
    8.4970    2.2800   21.0690 C   0  0  0  0  0  0  0  0  0  0  0  0
    8.8370    3.4330   20.4850 N   0  0  0  0  0  0  0  0  0  0  0  0
    8.3060    3.8420   16.7770 C   0  0  0  0  0  0  0  0  0  0  0  0
  1  3  2  0
  1  5  1  0
  1 10  1  0
  2 10  2  0
  2 12  1  0
  3  8  1  0
  3 11  1  0
  4  6  1  0
  4 15  2  0
  4 18  1  0
  5  9  1  0
  6 19  1  0
  7  8  1  0
  8  9  2  0
 11 12  2  0
 11 13  1  0
 13 14  1  0
 13 19  1  0
 14 15  1  0
 15 16  1  0
 16 17  2  0
 17 18  1  0
M  CHG  1  16   1
M  END
