
     RDKit          3D

 24 27  0  0  1  0  0  0  0  0999 V2000
   21.9940  -19.7960   20.3230 C   0  0  0  0  0  0  0  0  0  0  0  0
   21.8120  -21.0070   21.0360 C   0  0  0  0  0  0  0  0  0  0  0  0
   20.5650  -21.3110   21.6220 C   0  0  0  0  0  0  0  0  0  0  0  0
   19.5140  -20.3910   21.4480 C   0  0  0  0  0  0  0  0  0  0  0  0
   19.6750  -19.2300   20.7080 C   0  0  0  0  0  0  0  0  0  0  0  0
   20.9180  -18.8940   20.1490 C   0  0  0  0  0  0  0  0  0  0  0  0
   18.3830  -18.4590   20.6490 C   0  0  0  0  0  0  0  0  0  0  0  0
   17.4910  -19.4040   21.4730 C   0  0  0  0  0  0  0  0  0  0  0  0
   16.2920  -19.1950   21.6590 O   0  0  0  0  0  0  0  0  0  0  0  0
   18.2000  -20.4520   21.9370 N   0  0  0  0  0  0  0  0  0  0  0  0
   17.7530  -21.4420   22.9160 C   0  0  0  0  0  0  0  0  0  0  0  0
   17.5050  -22.8600   22.3960 C   0  0  0  0  0  0  0  0  0  0  0  0
   17.7080  -23.1660   21.0220 C   0  0  0  0  0  0  0  0  0  0  0  0
   17.5100  -24.4670   20.5250 C   0  0  0  0  0  0  0  0  0  0  0  0
   17.0570  -25.4510   21.4110 C   0  0  0  0  0  0  0  0  0  0  0  0
   16.8230  -25.1650   22.7360 C   0  0  0  0  0  0  0  0  0  0  0  0
   17.0600  -23.8890   23.2830 C   0  0  0  0  0  0  0  0  0  0  0  0
   16.8550  -23.6790   24.7580 C   0  0  0  0  0  0  0  0  0  0  0  0
   15.8140  -24.1340   25.2820 O   0  0  0  0  0  0  0  0  0  0  0  0
   17.7350  -23.0820   25.4160 O   0  0  0  0  0  0  0  0  0  0  0  0
   16.3980  -26.2900   23.3630 O   0  0  0  0  0  0  0  0  0  0  0  0
   16.3670  -27.2950   22.3920 C   0  0  0  0  0  0  0  0  0  0  0  0
   16.8070  -26.7640   21.1700 O   0  0  0  0  0  0  0  0  0  0  0  0
   23.5420  -19.4110   19.6720 Cl  0  0  0  0  0  0  0  0  0  0  0  0
  1  2  2  0
  1  6  1  0
  1 24  1  0
  2  3  1  0
  3  4  2  0
  4  5  1  0
  4 10  1  0
  5  6  2  0
  5  7  1  0
  7  8  1  0
  8  9  2  0
  8 10  1  0
 10 11  1  0
 11 12  1  0
 12 13  2  0
 12 17  1  0
 13 14  1  0
 14 15  2  0
 15 16  1  0
 15 23  1  0
 16 17  2  0
 16 21  1  0
 17 18  1  0
 18 19  2  0
 18 20  1  0
 21 22  1  0
 22 23  1  0
M  CHG  1  20  -1
M  END
