
     RDKit          3D

 29 32  0  0  1  0  0  0  0  0999 V2000
   22.1110   50.6790   12.7800 C   0  0  0  0  0  0  0  0  0  0  0  0
   23.5790   52.4240   13.6580 C   0  0  0  0  0  0  0  0  0  0  0  0
   24.2260   52.4330   16.0100 C   0  0  0  0  0  0  0  0  0  0  0  0
   23.7640   52.8600    9.0500 C   0  0  0  0  0  0  0  0  0  0  0  0
   22.7950   53.8450    8.7840 C   0  0  0  0  0  0  0  0  0  0  0  0
   22.7610   52.4570   11.2410 C   0  0  0  0  0  0  0  0  0  0  0  0
   23.7520   52.1650   10.2760 C   0  0  0  0  0  0  0  0  0  0  0  0
   22.2940   48.7420   19.0810 C   0  0  0  0  0  0  0  0  0  0  0  0
   23.0490   49.3360   21.7440 C   0  0  0  0  0  0  0  0  0  0  0  0
   23.6960   49.9720   20.6680 C   0  0  0  0  0  0  0  0  0  0  0  0
   21.3560   47.6780   22.6470 C   0  0  0  0  0  0  0  0  0  0  0  0
   23.4190   49.6210   23.0140 F   0  0  0  0  0  0  0  0  0  0  0  0
   22.0270   48.3960   21.4950 C   0  0  0  0  0  0  0  0  0  0  0  0
   21.6520   48.1090   20.1670 C   0  0  0  0  0  0  0  0  0  0  0  0
   23.3280   49.6720   19.3440 C   0  0  0  0  0  0  0  0  0  0  0  0
   21.8890   48.3850   17.7880 N   0  0  0  0  0  0  0  0  0  0  0  0
   21.9710   48.9570   16.5340 C   0  0  0  0  0  0  0  0  0  0  0  0
   21.3410   48.2940   15.5670 N   0  0  0  0  0  0  0  0  0  0  0  0
   21.3940   48.8280   14.3320 C   0  0  0  0  0  0  0  0  0  0  0  0
   22.6560   50.0920   16.3880 N   0  0  0  0  0  0  0  0  0  0  0  0
   22.7290   50.6520   15.1580 C   0  0  0  0  0  0  0  0  0  0  0  0
   23.4810   51.8410   14.8930 N   0  0  0  0  0  0  0  0  0  0  0  0
   24.2830   53.4160   13.4660 O   0  0  0  0  0  0  0  0  0  0  0  0
   22.8020   51.8130   12.5670 C   0  0  0  0  0  0  0  0  0  0  0  0
   22.0650   50.0380   14.0810 C   0  0  0  0  0  0  0  0  0  0  0  0
   21.7710   53.4280   10.9610 C   0  0  0  0  0  0  0  0  0  0  0  0
   21.7950   54.1220    9.7350 C   0  0  0  0  0  0  0  0  0  0  0  0
   20.5190   53.7780   12.1000 Cl  0  0  0  0  0  0  0  0  0  0  0  0
   24.9600   50.9690   10.5770 Cl  0  0  0  0  0  0  0  0  0  0  0  0
  1 24  2  0
  1 25  1  0
  2 22  1  0
  2 23  2  0
  2 24  1  0
  3 22  1  0
  4  5  2  0
  4  7  1  0
  5 27  1  0
  6  7  2  0
  6 24  1  0
  6 26  1  0
  7 29  1  0
  8 14  1  0
  8 15  2  0
  8 16  1  0
  9 10  2  0
  9 12  1  0
  9 13  1  0
 10 15  1  0
 11 13  1  0
 13 14  2  0
 16 17  1  0
 17 18  2  0
 17 20  1  0
 18 19  1  0
 19 25  2  0
 20 21  2  0
 21 22  1  0
 21 25  1  0
 26 27  2  0
 26 28  1  0
M  END
