
     RDKit          3D

 37 41  0  0  1  0  0  0  0  0999 V2000
   -5.9590   -0.3680   28.3260 C   0  0  0  0  0  0  0  0  0  0  0  0
   -5.4600   -0.1460   29.6210 C   0  0  0  0  0  0  0  0  0  0  0  0
   -7.8520    1.1200   28.7840 C   0  0  0  0  0  0  0  0  0  0  0  0
   -7.1440    0.2650   27.9050 C   0  0  0  0  0  0  0  0  0  0  0  0
  -10.2270    1.6650   29.0900 C   0  0  0  0  0  0  0  0  0  0  0  0
  -10.7990    2.4850   27.0010 C   0  0  2  0  0  0  0  0  0  0  0  0
  -11.1690    3.8900   26.4610 C   0  0  0  0  0  0  0  0  0  0  0  0
  -11.7250    3.6630   25.1190 N   0  0  0  0  0  0  0  0  0  0  0  0
  -11.2820    2.3520   24.6780 C   0  0  0  0  0  0  0  0  0  0  0  0
  -11.3860    1.5210   25.9510 C   0  0  1  0  0  0  0  0  0  0  0  0
  -10.7640    0.1210   25.9070 C   0  0  0  0  0  0  0  0  0  0  0  0
  -10.5930   -2.0980   26.9060 C   0  0  0  0  0  0  0  0  0  0  0  0
   -9.0780   -1.4720   25.1110 C   0  0  0  0  0  0  0  0  0  0  0  0
   -9.6950   -0.2080   25.0380 C   0  0  0  0  0  0  0  0  0  0  0  0
   -8.9400   -3.7540   26.0940 C   0  0  0  0  0  0  0  0  0  0  0  0
   -5.1170   -1.4210   27.2560 Cl  0  0  0  0  0  0  0  0  0  0  0  0
   -6.1530    0.7050   30.5010 C   0  0  0  0  0  0  0  0  0  0  0  0
   -7.3450    1.3240   30.0870 C   0  0  0  0  0  0  0  0  0  0  0  0
   -9.0820    1.7250   28.3790 N   0  0  0  0  0  0  0  0  0  0  0  0
  -11.2240    2.1910   28.3610 N   0  0  0  0  0  0  0  0  0  0  0  0
  -11.2120   -0.8400   26.8340 C   0  0  0  0  0  0  0  0  0  0  0  0
   -9.5340   -2.4270   26.0400 C   0  0  0  0  0  0  0  0  0  0  0  0
   -8.4740   -4.8120   26.1380 N   0  0  0  0  0  0  0  0  0  0  0  0
  -11.4010    4.6800   24.1280 C   0  0  0  0  0  0  0  0  0  0  0  0
  -12.1430    5.9570   24.3200 C   0  0  0  0  0  0  0  0  0  0  0  0
  -11.5400    7.2030   25.3690 S   0  0  0  0  0  0  0  0  0  0  0  0
  -12.8800    8.2420   24.9880 C   0  0  0  0  0  0  0  0  0  0  0  0
  -13.7420    7.6510   24.1010 C   0  0  0  0  0  0  0  0  0  0  0  0
  -13.3210    6.3380   23.7280 C   0  0  0  0  0  0  0  0  0  0  0  0
  -14.9680    8.3220   23.5930 C   0  0  0  0  0  0  0  0  0  0  0  0
  -15.6990    7.7150   22.7800 O   0  0  0  0  0  0  0  0  0  0  0  0
  -15.2390    9.4780   23.9870 O   0  0  0  0  0  0  0  0  0  0  0  0
   -9.2930    2.2870   27.1780 C   0  0  0  0  0  0  0  0  0  0  0  0
   -8.4450    2.6080   26.3450 O   0  0  0  0  0  0  0  0  0  0  0  0
  -12.6130    2.2960   28.7990 C   0  0  0  0  0  0  0  0  0  0  0  0
  -10.3560    1.2130   30.2270 O   0  0  0  0  0  0  0  0  0  0  0  0
   -5.5500    0.9880   32.0890 Cl  0  0  0  0  0  0  0  0  0  0  0  0
  1  2  2  0
  1  4  1  0
  1 16  1  0
  2 17  1  0
  3  4  2  0
  3 18  1  0
  3 19  1  0
  5 19  1  0
  5 20  1  0
  5 36  2  0
  6  7  1  6
  6 10  1  0
  6 20  1  0
  6 33  1  0
  7  8  1  0
  8  9  1  0
  8 24  1  0
  9 10  1  0
 10 11  1  6
 11 14  2  0
 11 21  1  0
 12 21  2  0
 12 22  1  0
 13 14  1  0
 13 22  2  0
 15 22  1  0
 15 23  3  0
 17 18  2  0
 17 37  1  0
 19 33  1  0
 20 35  1  0
 24 25  1  0
 25 26  1  0
 25 29  2  0
 26 27  1  0
 27 28  2  0
 28 29  1  0
 28 30  1  0
 30 31  2  0
 30 32  1  0
 33 34  2  0
M  CHG  1  32  -1
M  END
