
     RDKit          3D

 14 13  0  0  1  0  0  0  0  0999 V2000
   30.9320   36.2740  -20.2780 C   0  0  0  0  0  0  0  0  0  0  0  0
   29.8690   36.3090  -21.2020 O   0  0  0  0  0  0  0  0  0  0  0  0
   32.2860   35.7420  -20.8440 C   0  0  0  0  0  0  0  0  0  0  0  0
   32.6200   36.5310  -22.1540 C   0  0  0  0  0  0  0  0  0  0  0  0
   32.9450   37.8820  -21.9080 O   0  0  0  0  0  0  0  0  0  0  0  0
   32.1380   34.2290  -21.1970 C   0  0  0  0  0  0  0  0  0  0  0  0
   31.5790   33.9650  -22.4690 O   0  0  0  0  0  0  0  0  0  0  0  0
   33.3580   35.9650  -19.8290 N   0  0  0  0  0  0  0  0  0  0  0  0
   33.0810   35.6710  -18.4060 C   0  0  0  0  0  0  0  0  0  0  0  0
   32.6890   34.2410  -17.9810 C   0  0  0  0  0  0  0  0  0  0  0  0
   33.6930   33.2830  -18.2440 O   0  0  0  0  0  0  0  0  0  0  0  0
   34.7290   35.6290  -20.2240 C   0  0  0  0  0  0  0  0  0  0  0  0
   35.7560   36.6640  -19.7540 C   0  0  0  0  0  0  0  0  0  0  0  0
   35.7700   37.7460  -20.6580 O   0  0  0  0  0  0  0  0  0  0  0  0
  1  2  1  0
  1  3  1  0
  3  4  1  0
  3  6  1  0
  3  8  1  0
  4  5  1  0
  6  7  1  0
  8  9  1  0
  8 12  1  0
  9 10  1  0
 10 11  1  0
 12 13  1  0
 13 14  1  0
M  END
