
     RDKit          3D

 17 18  0  0  1  0  0  0  0  0999 V2000
   31.4520    4.8980   11.2320 O   0  0  0  0  0  0  0  0  0  0  0  0
   31.0370    5.7710   10.2010 C   0  0  0  0  0  0  0  0  0  0  0  0
   32.1760    6.0490    9.2120 C   0  0  1  0  0  0  0  0  0  0  0  0
   31.6240    6.8310    8.1540 O   0  0  0  0  0  0  0  0  0  0  0  0
   33.3200    6.8860    9.8220 C   0  0  1  0  0  0  0  0  0  0  0  0
   34.5710    6.3600    9.4240 O   0  0  0  0  0  0  0  0  0  0  0  0
   33.1270    8.2710    9.2350 C   0  0  0  0  0  0  0  0  0  0  0  0
   32.4450    7.9260    7.9170 C   0  0  2  0  0  0  0  0  0  0  0  0
   31.5900    9.0420    7.3640 N   0  0  0  0  0  0  0  0  0  0  0  0
   31.6890    9.3850    6.0020 C   0  0  0  0  0  0  0  0  0  0  0  0
   32.4460    8.8200    5.2130 O   0  0  0  0  0  0  0  0  0  0  0  0
   30.8860   10.4280    5.5580 N   0  0  0  0  0  0  0  0  0  0  0  0
   29.9430   11.1150    6.3170 C   0  0  0  0  0  0  0  0  0  0  0  0
   29.3210   12.0420    5.8050 O   0  0  0  0  0  0  0  0  0  0  0  0
   29.7810   10.6230    7.6870 C   0  0  0  0  0  0  0  0  0  0  0  0
   28.6780   11.2220    8.5430 C   0  0  0  0  0  0  0  0  0  0  0  0
   30.5910    9.6280    8.1300 C   0  0  0  0  0  0  0  0  0  0  0  0
  1  2  1  0
  3  2  1  1
  3  4  1  0
  3  5  1  0
  4  8  1  0
  5  6  1  6
  5  7  1  0
  7  8  1  0
  8  9  1  1
  9 10  1  0
  9 17  1  0
 10 11  2  0
 10 12  1  0
 12 13  1  0
 13 14  2  0
 13 15  1  0
 15 16  1  0
 15 17  2  0
M  END
