
     RDKit          3D

 31 31  0  0  1  0  0  0  0  0999 V2000
   41.1300   28.3100   21.8350 C   0  0  0  0  0  0  0  0  0  0  0  0
   40.0970   27.6510   21.7040 O   0  0  0  0  0  0  0  0  0  0  0  0
   42.0050   28.5590   20.8580 O   0  0  0  0  0  0  0  0  0  0  0  0
   41.7750   28.0270   19.5630 C   0  0  0  0  0  0  0  0  0  0  0  0
   42.7270   28.5600   18.5090 C   0  0  0  0  0  0  0  0  0  0  0  0
   43.8230   29.3820   18.8500 C   0  0  0  0  0  0  0  0  0  0  0  0
   44.6920   29.8510   17.8470 C   0  0  0  0  0  0  0  0  0  0  0  0
   44.4720   29.5030   16.5010 C   0  0  0  0  0  0  0  0  0  0  0  0
   43.3810   28.6830   16.1560 C   0  0  0  0  0  0  0  0  0  0  0  0
   42.5110   28.2120   17.1590 C   0  0  0  0  0  0  0  0  0  0  0  0
   35.2350   34.4700   32.0550 C   0  0  0  0  0  0  0  0  0  0  0  0
   34.6320   35.9010   32.1710 C   0  0  1  0  0  0  0  0  0  0  0  0
   35.7110   36.9500   32.4510 C   0  0  0  0  0  0  0  0  0  0  0  0
   36.5060   37.3060   31.5770 O   0  0  0  0  0  0  0  0  0  0  0  0
   35.6920   37.3950   33.7120 O   0  0  0  0  0  0  0  0  0  0  0  0
   34.2890   33.4020   31.4320 C   0  0  2  0  0  0  0  0  0  0  0  0
   33.1770   33.2040   32.2730 O   0  0  0  0  0  0  0  0  0  0  0  0
   34.9200   32.0660   31.2490 N   0  0  0  0  0  0  0  0  0  0  0  0
   34.1220   30.8250   31.1030 C   0  0  0  0  0  0  0  0  0  0  0  0
   36.3870   40.4690   35.5230 C   0  0  0  0  0  0  0  0  0  0  0  0
   36.0970   41.1040   36.7470 C   0  0  0  0  0  0  0  0  0  0  0  0
   35.6590   40.3430   37.8470 C   0  0  0  0  0  0  0  0  0  0  0  0
   35.5060   38.9500   37.7190 C   0  0  0  0  0  0  0  0  0  0  0  0
   35.7990   38.3120   36.5000 C   0  0  0  0  0  0  0  0  0  0  0  0
   36.2430   39.0710   35.3980 C   0  0  0  0  0  0  0  0  0  0  0  0
   33.2230   30.7750   29.8620 C   0  0  0  0  0  0  0  0  0  0  0  0
   36.6250   38.3890   34.1020 C   0  0  0  0  0  0  0  0  0  0  0  0
   32.8580   31.8230   29.2880 O   0  0  0  0  0  0  0  0  0  0  0  0
   36.1780   32.0280   30.6260 N   0  0  0  0  0  0  0  0  0  0  0  0
   32.8800   29.6310   29.4990 O   0  0  0  0  0  0  0  0  0  0  0  0
   34.0260   36.2450   30.9430 O   0  0  0  0  0  0  0  0  0  0  0  0
  1  2  2  0
  1  3  1  0
  3  4  1  0
  4  5  1  0
  5  6  2  0
  5 10  1  0
  6  7  1  0
  7  8  2  0
  8  9  1  0
  9 10  2  0
 11 12  1  0
 11 16  1  0
 12 13  1  0
 12 31  1  6
 13 14  2  0
 13 15  1  0
 15 27  1  0
 16 17  1  1
 16 18  1  0
 18 19  1  0
 18 29  1  0
 19 26  1  0
 20 21  2  0
 20 25  1  0
 21 22  1  0
 22 23  2  0
 23 24  1  0
 24 25  2  0
 25 27  1  0
 26 28  2  0
 26 30  1  0
M  CHG  1  30  -1
M  END
