
     RDKit          3D

 37 40  0  0  1  0  0  0  0  0999 V2000
   -8.6800    7.1030  -20.8870 O   0  0  0  0  0  0  0  0  0  0  0  0
   -7.9380    6.8660  -19.9360 C   0  0  0  0  0  0  0  0  0  0  0  0
   -7.2230    5.5010  -19.8820 C   0  0  2  0  0  0  0  0  0  0  0  0
   -5.8430    5.5420  -20.5930 C   0  0  0  0  0  0  0  0  0  0  0  0
   -5.9200    5.7840  -22.1220 C   0  0  0  0  0  0  0  0  0  0  0  0
   -4.5210    5.9370  -22.7380 C   0  0  0  0  0  0  0  0  0  0  0  0
   -3.6230    4.7340  -22.4100 C   0  0  0  0  0  0  0  0  0  0  0  0
   -3.5560    4.4800  -20.8960 C   0  0  0  0  0  0  0  0  0  0  0  0
   -4.9590    4.3130  -20.2940 C   0  0  0  0  0  0  0  0  0  0  0  0
   -8.0730    4.4360  -20.4200 N   0  0  0  0  0  0  0  0  0  0  0  0
   -8.2560    3.2230  -19.8760 C   0  0  0  0  0  0  0  0  0  0  0  0
   -7.7490    2.8770  -18.8100 O   0  0  0  0  0  0  0  0  0  0  0  0
   -9.1270    2.2310  -20.6540 C   0  0  2  0  0  0  0  0  0  0  0  0
  -10.5870    2.3300  -20.1890 C   0  0  0  0  0  0  0  0  0  0  0  0
   -8.6300    0.8510  -20.4650 N   0  0  0  0  0  0  0  0  0  0  0  0
   -7.3920    0.5210  -21.2020 C   0  0  0  0  0  0  0  0  0  0  0  0
   -7.6930    7.7890  -18.9760 N   0  0  0  0  0  0  0  0  0  0  0  0
   -7.0730    7.4860  -17.6850 C   0  0  0  0  0  0  0  0  0  0  0  0
   -7.2540    8.7330  -16.8290 C   0  0  0  0  0  0  0  0  0  0  0  0
   -7.3580    9.8570  -17.8400 C   0  0  2  0  0  0  0  0  0  0  0  0
   -8.0220   11.1250  -17.3000 C   0  0  0  0  0  0  0  0  0  0  0  0
   -8.1020    9.2080  -19.0200 C   0  0  1  0  0  0  0  0  0  0  0  0
   -7.8070    9.9860  -20.3180 C   0  0  0  0  0  0  0  0  0  0  0  0
   -8.5880   10.8670  -20.6790 O   0  0  0  0  0  0  0  0  0  0  0  0
   -6.6810    9.6630  -20.9750 N   0  0  0  0  0  0  0  0  0  0  0  0
   -6.1600   10.2130  -22.1750 C   0  0  0  0  0  0  0  0  0  0  0  0
   -7.0410   10.6050  -23.2120 C   0  0  0  0  0  0  0  0  0  0  0  0
   -6.5490   11.1270  -24.4180 C   0  0  0  0  0  0  0  0  0  0  0  0
   -5.1650   11.2710  -24.6010 C   0  0  0  0  0  0  0  0  0  0  0  0
   -4.2780   10.8720  -23.5850 C   0  0  0  0  0  0  0  0  0  0  0  0
   -4.7480   10.3260  -22.3630 C   0  0  0  0  0  0  0  0  0  0  0  0
   -3.7370    9.9120  -21.3470 C   0  0  0  0  0  0  0  0  0  0  0  0
   -2.5590   10.5500  -21.3630 N   0  0  0  0  0  0  0  0  0  0  0  0
   -1.6150   10.1740  -20.4750 C   0  0  0  0  0  0  0  0  0  0  0  0
   -1.8480    9.1500  -19.5410 C   0  0  0  0  0  0  0  0  0  0  0  0
   -3.1130    8.5400  -19.5950 C   0  0  0  0  0  0  0  0  0  0  0  0
   -4.0410    8.9180  -20.4980 N   0  0  0  0  0  0  0  0  0  0  0  0
  1  2  2  0
  2  3  1  0
  2 17  1  0
  3  4  1  0
  3 10  1  6
  4  5  1  0
  4  9  1  0
  5  6  1  0
  6  7  1  0
  7  8  1  0
  8  9  1  0
 10 11  1  0
 11 12  2  0
 11 13  1  0
 13 14  1  1
 13 15  1  0
 15 16  1  0
 17 18  1  0
 17 22  1  0
 18 19  1  0
 19 20  1  0
 20 21  1  1
 20 22  1  0
 22 23  1  6
 23 24  2  0
 23 25  1  0
 25 26  1  0
 26 27  2  0
 26 31  1  0
 27 28  1  0
 28 29  2  0
 29 30  1  0
 30 31  2  0
 31 32  1  0
 32 33  2  0
 32 37  1  0
 33 34  1  0
 34 35  2  0
 35 36  1  0
 36 37  2  0
M  CHG  1  15   1
M  END
