
     RDKit          3D

 40 43  0  0  1  0  0  0  0  0999 V2000
    9.6290   39.4720   34.5920 O   0  0  0  0  0  0  0  0  0  0  0  0
    9.1970   39.9790   33.5590 C   0  0  0  0  0  0  0  0  0  0  0  0
    7.9480   40.4550   33.4610 N   0  0  0  0  0  0  0  0  0  0  0  0
    7.0490   40.6110   34.6000 C   0  0  1  0  0  0  0  0  0  0  0  0
    7.5390   41.7300   35.4630 C   0  0  0  0  0  0  0  0  0  0  0  0
    8.1820   42.8740   34.9230 C   0  0  0  0  0  0  0  0  0  0  0  0
    8.6920   43.8900   35.7440 C   0  0  0  0  0  0  0  0  0  0  0  0
    8.5430   43.7940   37.1330 C   0  0  0  0  0  0  0  0  0  0  0  0
    7.8960   42.6850   37.6940 C   0  0  0  0  0  0  0  0  0  0  0  0
    7.4060   41.6570   36.8680 C   0  0  0  0  0  0  0  0  0  0  0  0
    5.6420   41.0440   34.1710 C   0  0  0  0  0  0  0  0  0  0  0  0
    5.5280   41.7130   33.1190 O   0  0  0  0  0  0  0  0  0  0  0  0
    4.6970   40.7270   34.9250 O   0  0  0  0  0  0  0  0  0  0  0  0
   10.0920   40.0710   32.3210 C   0  0  2  0  0  0  0  0  0  0  0  0
   11.3130   39.2910   32.4590 N   0  0  0  0  0  0  0  0  0  0  0  0
   12.0460   38.8690   31.3480 C   0  0  0  0  0  0  0  0  0  0  0  0
   11.7250   39.2800   30.0380 C   0  0  0  0  0  0  0  0  0  0  0  0
   12.4900   38.8310   28.9580 C   0  0  0  0  0  0  0  0  0  0  0  0
   13.1330   37.9960   31.5530 C   0  0  0  0  0  0  0  0  0  0  0  0
   13.8840   37.5230   30.4620 C   0  0  0  0  0  0  0  0  0  0  0  0
   13.5690   37.9480   29.1540 C   0  0  0  0  0  0  0  0  0  0  0  0
   14.3410   37.4860   28.0030 C   0  0  0  0  0  0  0  0  0  0  0  0
   15.5830   37.0060   28.1290 N   0  0  0  0  0  0  0  0  0  0  0  0
   13.8070   37.4980   26.7770 N   0  0  0  0  0  0  0  0  0  0  0  0
   10.3490   41.5280   32.1160 C   0  0  0  0  0  0  0  0  0  0  0  0
   11.2370   42.2560   32.9410 C   0  0  0  0  0  0  0  0  0  0  0  0
   11.5010   43.6300   32.7260 C   0  0  0  0  0  0  0  0  0  0  0  0
   12.3560   44.3720   33.5100 O   0  0  0  0  0  0  0  0  0  0  0  0
   12.8260   43.8090   34.7240 C   0  0  0  0  0  0  0  0  0  0  0  0
   10.8710   44.3000   31.6560 C   0  0  0  0  0  0  0  0  0  0  0  0
    9.9750   43.5840   30.8290 C   0  0  0  0  0  0  0  0  0  0  0  0
    9.7260   42.2230   31.0600 C   0  0  0  0  0  0  0  0  0  0  0  0
   11.1750   45.6360   31.4780 O   0  0  0  0  0  0  0  0  0  0  0  0
   10.3660   46.4150   30.6000 C   0  0  0  0  0  0  0  0  0  0  0  0
   10.6730   46.2580   29.1200 C   0  0  0  0  0  0  0  0  0  0  0  0
   11.8070   45.5500   28.6620 C   0  0  0  0  0  0  0  0  0  0  0  0
   12.0420   45.4170   27.2790 C   0  0  0  0  0  0  0  0  0  0  0  0
   11.1580   45.9930   26.3530 C   0  0  0  0  0  0  0  0  0  0  0  0
   10.0330   46.7070   26.8040 C   0  0  0  0  0  0  0  0  0  0  0  0
    9.7970   46.8450   28.1850 C   0  0  0  0  0  0  0  0  0  0  0  0
  1  2  2  0
  2  3  1  0
  2 14  1  0
  4  3  1  6
  4  5  1  0
  4 11  1  0
  5  6  2  0
  5 10  1  0
  6  7  1  0
  7  8  2  0
  8  9  1  0
  9 10  2  0
 11 12  2  0
 11 13  1  0
 14 15  1  1
 14 25  1  0
 15 16  1  0
 16 17  2  0
 16 19  1  0
 17 18  1  0
 18 21  2  0
 19 20  2  0
 20 21  1  0
 21 22  1  0
 22 23  2  0
 22 24  1  0
 25 26  2  0
 25 32  1  0
 26 27  1  0
 27 28  1  0
 27 30  2  0
 28 29  1  0
 30 31  1  0
 30 33  1  0
 31 32  2  0
 33 34  1  0
 34 35  1  0
 35 36  2  0
 35 40  1  0
 36 37  1  0
 37 38  2  0
 38 39  1  0
 39 40  2  0
M  CHG  2  13  -1  23   1
M  END
