
     RDKit          3D

 46 51  0  0  1  0  0  0  0  0999 V2000
   -4.1960    3.0860   30.6330 C   0  0  0  0  0  0  0  0  0  0  0  0
   -5.0550    4.1980   30.5320 C   0  0  0  0  0  0  0  0  0  0  0  0
   -4.5150    5.5030   30.4490 C   0  0  0  0  0  0  0  0  0  0  0  0
   -3.1250    5.7230   30.4460 C   0  0  0  0  0  0  0  0  0  0  0  0
   -2.2690    4.6010   30.5970 C   0  0  0  0  0  0  0  0  0  0  0  0
   -2.8000    3.2980   30.6920 C   0  0  0  0  0  0  0  0  0  0  0  0
   -2.6420    6.9750   30.2920 N   0  0  0  0  0  0  0  0  0  0  0  0
   -1.3080    7.1570   30.2560 C   0  0  0  0  0  0  0  0  0  0  0  0
   -0.3820    6.1170   30.4390 C   0  0  0  0  0  0  0  0  0  0  0  0
   -0.8720    4.8040   30.6250 C   0  0  0  0  0  0  0  0  0  0  0  0
   -4.7900    1.8430   30.7090 O   0  0  0  0  0  0  0  0  0  0  0  0
   -3.9610    0.7010   30.8670 C   0  0  0  0  0  0  0  0  0  0  0  0
   -6.4030    3.9250   30.5250 O   0  0  0  0  0  0  0  0  0  0  0  0
   -0.0560    3.7210   30.8450 O   0  0  0  0  0  0  0  0  0  0  0  0
    1.2540    3.7920   30.4690 C   0  0  0  0  0  0  0  0  0  0  0  0
    1.6150    3.6050   29.1220 C   0  0  0  0  0  0  0  0  0  0  0  0
    2.9670    3.6630   28.7490 C   0  0  0  0  0  0  0  0  0  0  0  0
    3.9610    3.9070   29.7170 C   0  0  0  0  0  0  0  0  0  0  0  0
    3.5900    4.1140   31.0650 C   0  0  0  0  0  0  0  0  0  0  0  0
    2.2390    4.0460   31.4400 C   0  0  0  0  0  0  0  0  0  0  0  0
    1.8890    4.2350   32.7330 F   0  0  0  0  0  0  0  0  0  0  0  0
    5.2910    3.9330   29.2460 N   0  0  0  0  0  0  0  0  0  0  0  0
   -7.3120    5.0060   30.6330 C   0  0  0  0  0  0  0  0  0  0  0  0
   -8.7250    4.4280   30.6710 C   0  0  0  0  0  0  0  0  0  0  0  0
   -9.0460    3.6230   29.4000 C   0  0  0  0  0  0  0  0  0  0  0  0
  -10.4650    3.2080   29.3140 N   0  0  0  0  0  0  0  0  0  0  0  0
  -10.7910    2.6340   27.9880 C   0  0  0  0  0  0  0  0  0  0  0  0
  -12.2820    2.2670   27.9170 C   0  0  0  0  0  0  0  0  0  0  0  0
  -12.5960    1.3500   28.9560 O   0  0  0  0  0  0  0  0  0  0  0  0
  -12.3730    1.9150   30.2410 C   0  0  0  0  0  0  0  0  0  0  0  0
  -10.8880    2.2820   30.3950 C   0  0  0  0  0  0  0  0  0  0  0  0
    6.4680    3.9590   29.8990 C   0  0  0  0  0  0  0  0  0  0  0  0
    7.7380    3.9290   29.0570 C   0  0  0  0  0  0  0  0  0  0  0  0
    7.5870    4.3960   27.6020 C   0  0  0  0  0  0  0  0  0  0  0  0
    8.6570    4.1780   26.8120 N   0  0  0  0  0  0  0  0  0  0  0  0
    6.5430    3.9360   31.1270 O   0  0  0  0  0  0  0  0  0  0  0  0
    6.5730    4.9310   27.1480 O   0  0  0  0  0  0  0  0  0  0  0  0
    8.7360    4.4460   25.4220 C   0  0  0  0  0  0  0  0  0  0  0  0
    8.1740    5.6050   24.8360 C   0  0  0  0  0  0  0  0  0  0  0  0
    8.2100    5.7870   23.4440 C   0  0  0  0  0  0  0  0  0  0  0  0
    8.8120    4.8160   22.6270 C   0  0  0  0  0  0  0  0  0  0  0  0
    9.4140    3.6840   23.2060 C   0  0  0  0  0  0  0  0  0  0  0  0
    9.3960    3.5110   24.6020 C   0  0  0  0  0  0  0  0  0  0  0  0
    8.8180    4.9740   21.2860 F   0  0  0  0  0  0  0  0  0  0  0  0
    8.7450    2.8340   29.3990 C   0  0  0  0  0  0  0  0  0  0  0  0
    9.0360    4.2650   29.7640 C   0  0  0  0  0  0  0  0  0  0  0  0
  1  2  2  0
  1  6  1  0
  1 11  1  0
  2  3  1  0
  2 13  1  0
  3  4  2  0
  4  5  1  0
  4  7  1  0
  5  6  2  0
  5 10  1  0
  7  8  2  0
  8  9  1  0
  9 10  2  0
 10 14  1  0
 11 12  1  0
 13 23  1  0
 14 15  1  0
 15 16  2  0
 15 20  1  0
 16 17  1  0
 17 18  2  0
 18 19  1  0
 18 22  1  0
 19 20  2  0
 20 21  1  0
 22 32  1  0
 23 24  1  0
 24 25  1  0
 25 26  1  0
 26 27  1  0
 26 31  1  0
 27 28  1  0
 28 29  1  0
 29 30  1  0
 30 31  1  0
 32 33  1  0
 32 36  2  0
 33 34  1  0
 33 45  1  0
 33 46  1  0
 34 35  1  0
 34 37  2  0
 35 38  1  0
 38 39  2  0
 38 43  1  0
 39 40  1  0
 40 41  2  0
 41 42  1  0
 41 44  1  0
 42 43  2  0
 45 46  1  0
M  CHG  1  26   1
M  END
