
     RDKit          3D

 16 16  0  0  1  0  0  0  0  0999 V2000
   17.4850   34.0040   -8.9070 O   0  0  0  0  0  0  0  0  0  0  0  0
   16.1690   34.1550   -9.5900 P   0  0  0  0  0  0  0  0  0  0  0  0
   16.0700   35.4360  -10.3680 O   0  0  0  0  0  0  0  0  0  0  0  0
   15.8240   32.9570  -10.4480 O   0  0  0  0  0  0  0  0  0  0  0  0
   14.9670   34.2730   -8.2480 C   0  0  1  0  0  0  0  0  0  0  0  0
   15.1270   35.7480   -7.1040 P   0  0  1  0  0  0  0  0  0  0  0  0
   14.2210   35.5960   -5.9460 O   0  0  0  0  0  0  0  0  0  0  0  0
   16.7070   35.5250   -6.5790 O   0  0  0  0  0  0  0  0  0  0  0  0
   15.0830   36.9920   -7.8820 O   0  0  0  0  0  0  0  0  0  0  0  0
   13.7310   34.4140   -8.9030 O   0  0  0  0  0  0  0  0  0  0  0  0
   14.9640   32.9970   -7.3490 C   0  0  0  0  0  0  0  0  0  0  0  0
   14.6770   31.6920   -7.9750 N   0  0  0  0  0  0  0  0  0  0  0  0
   13.6700   31.4470   -8.8270 C   0  0  0  0  0  0  0  0  0  0  0  0
   13.7240   30.1500   -9.1360 N   0  0  0  0  0  0  0  0  0  0  0  0
   14.7390   29.5410   -8.4550 C   0  0  0  0  0  0  0  0  0  0  0  0
   15.3350   30.5180   -7.7030 C   0  0  0  0  0  0  0  0  0  0  0  0
  1  2  1  0
  2  3  1  0
  2  4  2  0
  2  5  1  0
  5  6  1  0
  5 10  1  6
  5 11  1  0
  6  7  1  1
  6  8  1  0
  6  9  2  0
 11 12  1  0
 12 13  1  0
 12 16  1  0
 13 14  2  0
 14 15  1  0
 15 16  2  0
M  CHG  4   1  -1   3  -1   7  -1  14   1
M  END
