
     RDKit          3D

 40 45  0  0  1  0  0  0  0  0999 V2000
   -5.2290    0.7550   15.9640 C   0  0  0  0  0  0  0  0  0  0  0  0
   -1.0500   -1.6020   24.7700 C   0  0  0  0  0  0  0  0  0  0  0  0
   -1.5430   -2.1000   23.4420 C   0  0  0  0  0  0  0  0  0  0  0  0
   -3.3310    1.6140   17.2260 C   0  0  0  0  0  0  0  0  0  0  0  0
   -1.8520   -1.7710   25.9150 C   0  0  0  0  0  0  0  0  0  0  0  0
    0.2170   -0.9760   24.9030 C   0  0  0  0  0  0  0  0  0  0  0  0
   -0.1310   -0.6560   27.1520 C   0  0  0  0  0  0  0  0  0  0  0  0
   -1.4000   -1.2920   27.1620 C   0  0  0  0  0  0  0  0  0  0  0  0
   -1.9060   -1.2820   28.5080 C   0  0  0  0  0  0  0  0  0  0  0  0
   -5.2870    0.7500   18.4030 C   0  0  0  0  0  0  0  0  0  0  0  0
   -5.9080    0.4890   17.1690 C   0  0  0  0  0  0  0  0  0  0  0  0
   -3.1710   -1.8490   28.9670 C   0  0  0  0  0  0  0  0  0  0  0  0
   -5.7950    0.4220   14.7830 F   0  0  0  0  0  0  0  0  0  0  0  0
   -3.9500    1.3400   15.9930 C   0  0  0  0  0  0  0  0  0  0  0  0
   -5.9340    0.4590   19.5560 F   0  0  0  0  0  0  0  0  0  0  0  0
   -3.9850    1.2890   18.4340 C   0  0  0  0  0  0  0  0  0  0  0  0
   -3.3120    1.4770   19.7080 C   0  0  0  0  0  0  0  0  0  0  0  0
   -3.0680    2.6710   20.2360 N   0  0  0  0  0  0  0  0  0  0  0  0
   -2.8420    0.4850   20.4850 N   0  0  0  0  0  0  0  0  0  0  0  0
   -2.2760    1.0730   21.5990 C   0  0  0  0  0  0  0  0  0  0  0  0
   -2.4010    2.4270   21.4320 C   0  0  0  0  0  0  0  0  0  0  0  0
   -1.6560    0.2650   22.6880 C   0  0  0  0  0  0  0  0  0  0  0  0
   -1.6530   -1.1950   22.4390 N   0  0  0  0  0  0  0  0  0  0  0  0
   -1.7330   -1.6240   21.0300 C   0  0  0  0  0  0  0  0  0  0  0  0
   -2.8940   -0.9450   20.2870 C   0  0  0  0  0  0  0  0  0  0  0  0
   -1.7940   -3.2980   23.3130 O   0  0  0  0  0  0  0  0  0  0  0  0
    0.1090   -0.2780   28.4560 N   0  0  0  0  0  0  0  0  0  0  0  0
   -0.9500   -0.6520   29.2720 C   0  0  0  0  0  0  0  0  0  0  0  0
    0.6860   -0.4750   26.0740 N   0  0  0  0  0  0  0  0  0  0  0  0
    1.0180   -0.8680   23.7800 O   0  0  0  0  0  0  0  0  0  0  0  0
    2.1900   -0.0660   23.8310 C   0  0  0  0  0  0  0  0  0  0  0  0
   -3.8980   -2.5320   28.2450 O   0  0  0  0  0  0  0  0  0  0  0  0
   -3.6610   -1.4920   30.3910 C   0  0  0  0  0  0  0  0  0  0  0  0
   -3.7490   -0.3140   30.7390 O   0  0  0  0  0  0  0  0  0  0  0  0
   -4.1270   -2.5270   31.1290 N   0  0  0  0  0  0  0  0  0  0  0  0
   -3.8390   -3.9580   30.9710 C   0  0  0  0  0  0  0  0  0  0  0  0
   -5.0850   -4.6790   31.4760 C   0  0  2  0  0  0  0  0  0  0  0  0
   -5.9440   -4.9100   30.3750 O   0  0  0  0  0  0  0  0  0  0  0  0
   -5.7120   -3.7210   32.4870 C   0  0  0  0  0  0  0  0  0  0  0  0
   -5.1770   -2.3300   32.1290 C   0  0  0  0  0  0  0  0  0  0  0  0
  1 11  2  0
  1 13  1  0
  1 14  1  0
  2  3  1  0
  2  5  2  0
  2  6  1  0
  3 23  1  0
  3 26  2  0
  4 14  2  0
  4 16  1  0
  5  8  1  0
  6 29  2  0
  6 30  1  0
  7  8  2  0
  7 27  1  0
  7 29  1  0
  8  9  1  0
  9 12  1  0
  9 28  2  0
 10 11  1  0
 10 15  1  0
 10 16  2  0
 12 32  2  0
 12 33  1  0
 16 17  1  0
 17 18  2  0
 17 19  1  0
 18 21  1  0
 19 20  1  0
 19 25  1  0
 20 21  2  0
 20 22  1  0
 22 23  1  0
 23 24  1  0
 24 25  1  0
 27 28  1  0
 30 31  1  0
 33 34  2  0
 33 35  1  0
 35 36  1  0
 35 40  1  0
 36 37  1  0
 37 38  1  6
 37 39  1  0
 39 40  1  0
M  END
