
     RDKit          3D

 32 35  0  0  1  0  0  0  0  0999 V2000
   44.9990    7.8250   32.3620 C   0  0  0  0  0  0  0  0  0  0  0  0
   43.8240    7.8930   33.1460 C   0  0  0  0  0  0  0  0  0  0  0  0
   43.4320    9.1040   33.7400 C   0  0  0  0  0  0  0  0  0  0  0  0
   46.9820    8.8990   31.2930 C   0  0  0  0  0  0  0  0  0  0  0  0
   46.4970    6.5250   30.9220 N   0  0  0  0  0  0  0  0  0  0  0  0
   45.4090    6.5230   31.7390 C   0  0  0  0  0  0  0  0  0  0  0  0
   47.7400   10.1400   31.0000 C   0  0  0  0  0  0  0  0  0  0  0  0
   48.4390    7.6350   29.7790 C   0  0  0  0  0  0  0  0  0  0  0  0
   50.8860    8.1300   29.2080 C   0  0  0  0  0  0  0  0  0  0  0  0
   46.8570    5.2490   30.2550 C   0  0  0  0  0  0  0  0  0  0  0  0
   44.2180   10.2540   33.5590 C   0  0  0  0  0  0  0  0  0  0  0  0
   45.3770   10.1960   32.7640 C   0  0  0  0  0  0  0  0  0  0  0  0
   45.7820    8.9830   32.1570 C   0  0  0  0  0  0  0  0  0  0  0  0
   47.2870    7.7000   30.7140 C   0  0  0  0  0  0  0  0  0  0  0  0
   43.7620   11.7370   34.3090 Cl  0  0  0  0  0  0  0  0  0  0  0  0
   44.7360    5.5200   31.9740 O   0  0  0  0  0  0  0  0  0  0  0  0
   48.2680    7.4460   28.5780 O   0  0  0  0  0  0  0  0  0  0  0  0
   49.8660    7.8110   30.3160 C   0  0  0  0  0  0  0  0  0  0  0  0
   47.9960    4.5110   30.9370 C   0  0  0  0  0  0  0  0  0  0  0  0
   47.8220    3.9990   32.2360 C   0  0  0  0  0  0  0  0  0  0  0  0
   48.8630    3.3060   32.8730 C   0  0  0  0  0  0  0  0  0  0  0  0
   50.1120    3.1490   32.2340 C   0  0  0  0  0  0  0  0  0  0  0  0
   50.2860    3.6660   30.9300 C   0  0  0  0  0  0  0  0  0  0  0  0
   49.2300    4.3320   30.2800 C   0  0  0  0  0  0  0  0  0  0  0  0
   48.5630   10.6910   32.0010 C   0  0  0  0  0  0  0  0  0  0  0  0
   49.2760   11.8800   31.7590 C   0  0  0  0  0  0  0  0  0  0  0  0
   49.1750   12.5170   30.5080 C   0  0  0  0  0  0  0  0  0  0  0  0
   48.3560   11.9680   29.5020 C   0  0  0  0  0  0  0  0  0  0  0  0
   47.6350   10.7830   29.7470 C   0  0  0  0  0  0  0  0  0  0  0  0
   51.2380    2.4560   32.9440 C   0  0  0  0  0  0  0  0  0  0  0  0
   52.4030    2.5820   32.5050 O   0  0  0  0  0  0  0  0  0  0  0  0
   50.9830    1.7970   33.9770 O   0  0  0  0  0  0  0  0  0  0  0  0
  1  2  2  0
  1  6  1  0
  1 13  1  0
  2  3  1  0
  3 11  2  0
  4  7  1  0
  4 13  1  0
  4 14  2  0
  5  6  1  0
  5 10  1  0
  5 14  1  0
  6 16  2  0
  7 25  2  0
  7 29  1  0
  8 14  1  0
  8 17  2  0
  8 18  1  0
  9 18  1  0
 10 19  1  0
 11 12  1  0
 11 15  1  0
 12 13  2  0
 19 20  2  0
 19 24  1  0
 20 21  1  0
 21 22  2  0
 22 23  1  0
 22 30  1  0
 23 24  2  0
 25 26  1  0
 26 27  2  0
 27 28  1  0
 28 29  2  0
 30 31  2  0
 30 32  1  0
M  CHG  1  32  -1
M  END
