
     RDKit          3D

 20 21  0  0  1  0  0  0  0  0999 V2000
   46.1030   28.4400    2.5460 C   0  0  0  0  0  0  0  0  0  0  0  0
   45.1520   28.7570    1.5550 C   0  0  0  0  0  0  0  0  0  0  0  0
   43.3560   28.3260    3.1560 C   0  0  0  0  0  0  0  0  0  0  0  0
   44.3080   28.0280    4.1430 C   0  0  0  0  0  0  0  0  0  0  0  0
   45.6850   28.0820    3.8560 C   0  0  0  0  0  0  0  0  0  0  0  0
   46.5330   27.7880    4.9030 O   0  0  0  0  0  0  0  0  0  0  0  0
   47.9250   27.6300    4.6670 C   0  0  0  0  0  0  0  0  0  0  0  0
   48.4690   23.7680    3.2470 C   0  0  0  0  0  0  0  0  0  0  0  0
   48.3320   25.1600    3.6870 C   0  0  0  0  0  0  0  0  0  0  0  0
   48.1840   26.2970    4.1040 C   0  0  0  0  0  0  0  0  0  0  0  0
   43.7820   28.7110    1.8710 C   0  0  0  0  0  0  0  0  0  0  0  0
   43.0350   28.9410   -0.6810 O   0  0  0  0  0  0  0  0  0  0  0  0
   41.2700   28.6270    1.1250 O   0  0  0  0  0  0  0  0  0  0  0  0
   42.5450   29.2070    0.6810 S   0  0  0  0  0  0  0  0  0  0  0  0
   41.1560   31.5130    0.3790 C   0  0  0  0  0  0  0  0  0  0  0  0
   42.4240   30.9390    0.8750 N   0  0  0  0  0  0  0  0  0  0  0  0
   42.5650   31.4780    2.2290 C   0  0  0  0  0  0  0  0  0  0  0  0
   41.1620   31.3800    2.7940 C   0  0  1  0  0  0  0  0  0  0  0  0
   40.9500   32.2770    4.3410 S   0  0  0  0  0  0  0  0  0  0  0  0
   40.3300   31.9000    1.6260 C   0  0  0  0  0  0  0  0  0  0  0  0
  1  2  2  0
  1  5  1  0
  2 11  1  0
  3  4  1  0
  3 11  2  0
  4  5  2  0
  5  6  1  0
  6  7  1  0
  7 10  1  0
  8  9  1  0
  9 10  3  0
 11 14  1  0
 12 14  2  0
 13 14  2  0
 14 16  1  0
 15 16  1  0
 15 20  1  0
 16 17  1  0
 17 18  1  0
 18 19  1  1
 18 20  1  0
M  CHG  1  19  -1
M  END
