
     RDKit          3D

 33 37  0  0  1  0  0  0  0  0999 V2000
   31.1530   -0.2980   28.7640 C   0  0  2  0  0  0  0  0  0  0  0  0
   31.2270   -1.7180   28.1650 C   0  0  1  0  0  0  0  0  0  0  0  0
   30.0760   -2.4750   28.4910 O   0  0  0  0  0  0  0  0  0  0  0  0
   28.8600   -2.0390   28.0400 C   0  0  0  0  0  0  0  0  0  0  0  0
   27.9020   -3.0350   27.7900 C   0  0  0  0  0  0  0  0  0  0  0  0
   26.6280   -2.6880   27.3240 C   0  0  0  0  0  0  0  0  0  0  0  0
   26.3030   -1.3390   27.0900 C   0  0  0  0  0  0  0  0  0  0  0  0
   25.0820   -1.0260   26.5760 O   0  0  0  0  0  0  0  0  0  0  0  0
   27.2380   -0.3270   27.3800 C   0  0  0  0  0  0  0  0  0  0  0  0
   28.5150   -0.6750   27.8620 C   0  0  0  0  0  0  0  0  0  0  0  0
   29.6630    0.6060   28.2520 S   0  0  0  0  0  0  0  0  0  0  0  0
   32.4280    0.4840   28.5060 C   0  0  0  0  0  0  0  0  0  0  0  0
   32.5600    1.3510   27.3990 C   0  0  0  0  0  0  0  0  0  0  0  0
   33.7860    1.9810   27.1360 C   0  0  0  0  0  0  0  0  0  0  0  0
   34.8840    1.7370   27.9770 C   0  0  0  0  0  0  0  0  0  0  0  0
   36.0720    2.3220   27.6970 O   0  0  0  0  0  0  0  0  0  0  0  0
   34.7620    0.8870   29.0900 C   0  0  0  0  0  0  0  0  0  0  0  0
   33.5320    0.2650   29.3550 C   0  0  0  0  0  0  0  0  0  0  0  0
   31.6700   -1.8860   26.7030 C   0  0  0  0  0  0  0  0  0  0  0  0
   32.6470   -2.8540   26.3750 C   0  0  0  0  0  0  0  0  0  0  0  0
   33.0840   -3.0300   25.0440 C   0  0  0  0  0  0  0  0  0  0  0  0
   32.5520   -2.2230   24.0090 C   0  0  0  0  0  0  0  0  0  0  0  0
   31.5530   -1.2880   24.3350 C   0  0  0  0  0  0  0  0  0  0  0  0
   31.1090   -1.1250   25.6570 C   0  0  0  0  0  0  0  0  0  0  0  0
   32.9380   -2.2340   22.6850 O   0  0  0  0  0  0  0  0  0  0  0  0
   33.9150   -3.1420   22.1910 C   0  0  0  0  0  0  0  0  0  0  0  0
   33.2520   -4.3780   21.5430 C   0  0  0  0  0  0  0  0  0  0  0  0
   32.5550   -4.1210   20.2510 N   0  0  0  0  0  0  0  0  0  0  0  0
   31.3440   -3.2720   20.3790 C   0  0  0  0  0  0  0  0  0  0  0  0
   30.5570   -3.1840   19.0620 C   0  0  0  0  0  0  0  0  0  0  0  0
   31.4630   -2.7220   17.9130 C   0  0  0  0  0  0  0  0  0  0  0  0
   32.6780   -3.6510   17.8040 C   0  0  0  0  0  0  0  0  0  0  0  0
   33.4450   -3.6980   19.1360 C   0  0  0  0  0  0  0  0  0  0  0  0
  1  2  1  0
  1 11  1  0
  1 12  1  6
  2  3  1  0
  2 19  1  6
  3  4  1  0
  4  5  2  0
  4 10  1  0
  5  6  1  0
  6  7  2  0
  7  8  1  0
  7  9  1  0
  9 10  2  0
 10 11  1  0
 12 13  2  0
 12 18  1  0
 13 14  1  0
 14 15  2  0
 15 16  1  0
 15 17  1  0
 17 18  2  0
 19 20  2  0
 19 24  1  0
 20 21  1  0
 21 22  2  0
 22 23  1  0
 22 25  1  0
 23 24  2  0
 25 26  1  0
 26 27  1  0
 27 28  1  0
 28 29  1  0
 28 33  1  0
 29 30  1  0
 30 31  1  0
 31 32  1  0
 32 33  1  0
M  CHG  1  28   1
M  END
