
     RDKit          3D

 26 27  0  0  1  0  0  0  0  0999 V2000
   -1.3480   57.0270   33.9650 C   0  0  0  0  0  0  0  0  0  0  0  0
   -0.1920   56.1980   33.8620 C   0  0  0  0  0  0  0  0  0  0  0  0
    0.7260   55.4980   33.7970 N   0  0  0  0  0  0  0  0  0  0  0  0
   -2.5490   56.5050   33.6280 C   0  0  0  0  0  0  0  0  0  0  0  0
   -3.7510   57.1880   33.5810 N   0  0  0  0  0  0  0  0  0  0  0  0
   -2.7170   54.7740   33.2810 S   0  0  0  0  0  0  0  0  0  0  0  0
   -3.7810   54.6320   31.8770 C   0  0  0  0  0  0  0  0  0  0  0  0
   -4.9180   53.7910   31.9160 C   0  0  0  0  0  0  0  0  0  0  0  0
   -5.6200   53.5160   30.7260 C   0  0  0  0  0  0  0  0  0  0  0  0
   -5.1980   54.0790   29.5080 C   0  0  0  0  0  0  0  0  0  0  0  0
   -4.1060   54.9680   29.4820 C   0  0  0  0  0  0  0  0  0  0  0  0
   -3.4010   55.2420   30.6670 C   0  0  0  0  0  0  0  0  0  0  0  0
   -5.3430   53.1970   33.1050 N   0  0  0  0  0  0  0  0  0  0  0  0
   -1.1790   58.3510   34.5490 C   0  0  0  0  0  0  0  0  0  0  0  0
   -2.1260   58.7140   35.5530 C   0  0  0  0  0  0  0  0  0  0  0  0
   -2.9010   58.9540   36.3770 N   0  0  0  0  0  0  0  0  0  0  0  0
   -0.1550   59.1920   34.2850 C   0  0  0  0  0  0  0  0  0  0  0  0
    0.8210   59.0100   33.3200 N   0  0  0  0  0  0  0  0  0  0  0  0
    0.0500   60.6710   35.2510 S   0  0  0  0  0  0  0  0  0  0  0  0
    1.0460   61.7800   34.3010 C   0  0  0  0  0  0  0  0  0  0  0  0
    0.4360   62.7430   33.4690 C   0  0  0  0  0  0  0  0  0  0  0  0
    1.2260   63.6940   32.7960 C   0  0  0  0  0  0  0  0  0  0  0  0
    2.6190   63.6940   32.9670 C   0  0  0  0  0  0  0  0  0  0  0  0
    3.2290   62.7430   33.8010 C   0  0  0  0  0  0  0  0  0  0  0  0
    2.4450   61.7820   34.4690 C   0  0  0  0  0  0  0  0  0  0  0  0
   -0.9490   62.8120   33.3550 N   0  0  0  0  0  0  0  0  0  0  0  0
  1  2  1  0
  1  4  2  0
  1 14  1  0
  2  3  3  0
  4  5  1  0
  4  6  1  0
  6  7  1  0
  7  8  2  0
  7 12  1  0
  8  9  1  0
  8 13  1  0
  9 10  2  0
 10 11  1  0
 11 12  2  0
 14 15  1  0
 14 17  2  0
 15 16  3  0
 17 18  1  0
 17 19  1  0
 19 20  1  0
 20 21  2  0
 20 25  1  0
 21 22  1  0
 21 26  1  0
 22 23  2  0
 23 24  1  0
 24 25  2  0
M  END
