
     RDKit          3D

 39 42  0  0  1  0  0  0  0  0999 V2000
   44.0010   47.2660   39.2480 C   0  0  0  0  0  0  0  0  0  0  0  0
   43.0510   46.3370   39.7260 C   0  0  0  0  0  0  0  0  0  0  0  0
   41.6840   46.4810   39.4220 C   0  0  0  0  0  0  0  0  0  0  0  0
   41.2330   47.5530   38.6330 C   0  0  0  0  0  0  0  0  0  0  0  0
   42.1540   48.4920   38.1350 C   0  0  0  0  0  0  0  0  0  0  0  0
   43.5170   48.3300   38.4300 C   0  0  0  0  0  0  0  0  0  0  0  0
   44.6500   49.0290   38.0790 N   0  0  0  0  0  0  0  0  0  0  0  0
   45.7820   48.4880   38.6430 C   0  0  0  0  0  0  0  0  0  0  0  0
   45.4410   47.4200   39.3950 C   0  0  0  0  0  0  0  0  0  0  0  0
   46.3850   46.5730   40.1860 C   0  0  0  0  0  0  0  0  0  0  0  0
   46.8360   47.0780   41.5660 C   0  0  1  0  0  0  0  0  0  0  0  0
   47.6110   48.3970   41.4200 C   0  0  0  0  0  0  0  0  0  0  0  0
   48.8210   48.2980   41.1370 O   0  0  0  0  0  0  0  0  0  0  0  0
   47.0060   49.4770   41.5940 O   0  0  0  0  0  0  0  0  0  0  0  0
   45.6880   47.2320   42.4590 N   0  0  0  0  0  0  0  0  0  0  0  0
   45.8240   47.3370   43.7870 C   0  0  0  0  0  0  0  0  0  0  0  0
   46.9050   47.1800   44.3490 O   0  0  0  0  0  0  0  0  0  0  0  0
   44.5730   47.6080   44.6210 C   0  0  0  0  0  0  0  0  0  0  0  0
   44.7780   47.2760   46.1180 C   0  0  0  0  0  0  0  0  0  0  0  0
   44.5920   45.7980   46.5880 C   0  0  0  0  0  0  0  0  0  0  0  0
   45.1010   44.8350   45.6880 O   0  0  0  0  0  0  0  0  0  0  0  0
   43.1940   45.6840   46.6850 O   0  0  0  0  0  0  0  0  0  0  0  0
   45.2810   45.4880   47.9620 C   0  0  2  0  0  0  0  0  0  0  0  0
   46.8270   45.6470   47.9600 C   0  0  0  0  0  0  0  0  0  0  0  0
   47.4550   45.4160   49.3240 C   0  0  0  0  0  0  0  0  0  0  0  0
   47.6420   46.5030   50.2010 C   0  0  0  0  0  0  0  0  0  0  0  0
   48.1900   46.2920   51.4800 C   0  0  0  0  0  0  0  0  0  0  0  0
   48.5660   44.9990   51.8870 C   0  0  0  0  0  0  0  0  0  0  0  0
   48.3920   43.9110   51.0110 C   0  0  0  0  0  0  0  0  0  0  0  0
   47.8390   44.1200   49.7330 C   0  0  0  0  0  0  0  0  0  0  0  0
   44.9560   44.1260   48.4130 N   0  0  0  0  0  0  0  0  0  0  0  0
   43.9970   43.7860   49.2880 C   0  0  0  0  0  0  0  0  0  0  0  0
   43.2420   44.6010   49.8090 O   0  0  0  0  0  0  0  0  0  0  0  0
   43.9060   42.3310   49.6450 C   0  0  0  0  0  0  0  0  0  0  0  0
   43.3840   41.9480   50.8980 C   0  0  0  0  0  0  0  0  0  0  0  0
   43.2420   40.5900   51.2350 C   0  0  0  0  0  0  0  0  0  0  0  0
   43.6060   39.5930   50.3150 C   0  0  0  0  0  0  0  0  0  0  0  0
   44.1240   39.9620   49.0620 C   0  0  0  0  0  0  0  0  0  0  0  0
   44.2790   41.3210   48.7310 C   0  0  0  0  0  0  0  0  0  0  0  0
  1  2  2  0
  1  6  1  0
  1  9  1  0
  2  3  1  0
  3  4  2  0
  4  5  1  0
  5  6  2  0
  6  7  1  0
  7  8  1  0
  8  9  2  0
  9 10  1  0
 11 10  1  6
 11 12  1  0
 11 15  1  0
 12 13  2  0
 12 14  1  0
 15 16  1  0
 16 17  2  0
 16 18  1  0
 18 19  1  0
 19 20  1  0
 20 21  1  0
 20 22  1  0
 20 23  1  0
 23 24  1  6
 23 31  1  0
 24 25  1  0
 25 26  2  0
 25 30  1  0
 26 27  1  0
 27 28  2  0
 28 29  1  0
 29 30  2  0
 31 32  1  0
 32 33  2  0
 32 34  1  0
 34 35  2  0
 34 39  1  0
 35 36  1  0
 36 37  2  0
 37 38  1  0
 38 39  2  0
M  CHG  1  14  -1
M  END
