
     RDKit          3D

 39 41  0  0  1  0  0  0  0  0999 V2000
   24.3360   25.4030   26.6300 O   0  0  0  0  0  0  0  0  0  0  0  0
   23.5020   24.5030   26.5320 C   0  0  0  0  0  0  0  0  0  0  0  0
   22.6950   24.3450   25.4690 N   0  0  0  0  0  0  0  0  0  0  0  0
   22.7670   25.1420   24.2430 C   0  0  2  0  0  0  0  0  0  0  0  0
   21.8450   26.3680   24.3800 C   0  0  0  0  0  0  0  0  0  0  0  0
   22.0520   27.2860   25.1720 O   0  0  0  0  0  0  0  0  0  0  0  0
   22.4040   24.2570   23.0000 C   0  0  0  0  0  0  0  0  0  0  0  0
   22.5670   25.0810   21.7040 C   0  0  0  0  0  0  0  0  0  0  0  0
   23.3890   23.0700   22.9450 C   0  0  0  0  0  0  0  0  0  0  0  0
   20.9720   23.6770   23.0230 C   0  0  0  0  0  0  0  0  0  0  0  0
   23.3220   23.5080   27.6370 C   0  0  0  0  0  0  0  0  0  0  0  0
   23.4530   23.9030   28.9840 C   0  0  0  0  0  0  0  0  0  0  0  0
   23.3450   22.9510   30.0130 C   0  0  0  0  0  0  0  0  0  0  0  0
   23.0780   22.1540   27.3430 C   0  0  0  0  0  0  0  0  0  0  0  0
   22.9280   21.2040   28.3710 C   0  0  0  0  0  0  0  0  0  0  0  0
   22.5490   19.8140   27.9650 C   0  0  0  0  0  0  0  0  0  0  0  0
   23.1440   19.2890   27.0010 O   0  0  0  0  0  0  0  0  0  0  0  0
   21.6140   19.2430   28.5630 O   0  0  0  0  0  0  0  0  0  0  0  0
   23.0860   21.5910   29.7340 C   0  0  0  0  0  0  0  0  0  0  0  0
   22.9490   20.6590   30.8780 C   0  0  0  0  0  0  0  0  0  0  0  0
   21.9260   20.9090   31.8160 C   0  0  0  0  0  0  0  0  0  0  0  0
   21.6930   20.0100   32.8700 C   0  0  0  0  0  0  0  0  0  0  0  0
   22.4920   18.8610   32.9580 C   0  0  0  0  0  0  0  0  0  0  0  0
   22.2080   17.9120   33.9170 O   0  0  0  0  0  0  0  0  0  0  0  0
   22.9450   16.6960   33.8690 C   0  0  0  0  0  0  0  0  0  0  0  0
   23.5160   18.6340   32.1080 N   0  0  0  0  0  0  0  0  0  0  0  0
   23.7540   19.5040   31.1030 C   0  0  0  0  0  0  0  0  0  0  0  0
   24.9880   19.2030   30.3040 C   0  0  0  0  0  0  0  0  0  0  0  0
   25.7550   20.1040   29.9640 O   0  0  0  0  0  0  0  0  0  0  0  0
   25.1340   17.9050   29.9760 N   0  0  0  0  0  0  0  0  0  0  0  0
   26.2830   17.2900   29.4270 C   0  0  0  0  0  0  0  0  0  0  0  0
   27.5820   17.7370   29.7450 C   0  0  0  0  0  0  0  0  0  0  0  0
   28.7070   17.0950   29.2090 C   0  0  0  0  0  0  0  0  0  0  0  0
   28.5420   15.9950   28.3390 C   0  0  0  0  0  0  0  0  0  0  0  0
   29.7150   15.3020   27.6880 C   0  0  2  0  0  0  0  0  0  0  0  0
   29.8760   13.9310   28.1620 N   0  0  0  0  0  0  0  0  0  0  0  0
   30.9800   15.9840   27.8220 N   0  0  0  0  0  0  0  0  0  0  0  0
   27.2470   15.5220   28.0540 C   0  0  0  0  0  0  0  0  0  0  0  0
   26.1250   16.1510   28.6150 C   0  0  0  0  0  0  0  0  0  0  0  0
  1  2  2  0
  2  3  1  0
  2 11  1  0
  4  3  1  1
  4  5  1  0
  4  7  1  0
  5  6  2  0
  7  8  1  0
  7  9  1  0
  7 10  1  0
 11 12  2  0
 11 14  1  0
 12 13  1  0
 13 19  2  0
 14 15  2  0
 15 16  1  0
 15 19  1  0
 16 17  1  0
 16 18  2  0
 19 20  1  0
 20 21  2  0
 20 27  1  0
 21 22  1  0
 22 23  2  0
 23 24  1  0
 23 26  1  0
 24 25  1  0
 26 27  2  0
 27 28  1  0
 28 29  2  0
 28 30  1  0
 30 31  1  0
 31 32  2  0
 31 39  1  0
 32 33  1  0
 33 34  2  0
 34 35  1  0
 34 38  1  0
 35 36  1  1
 35 37  1  0
 38 39  2  0
M  CHG  2  17  -1  36   1
M  END
