
     RDKit          3D

 33 36  0  0  1  0  0  0  0  0999 V2000
   -0.2900   61.5390   79.9430 C   0  0  0  0  0  0  0  0  0  0  0  0
   -0.2180   61.7350   81.4610 C   0  0  0  0  0  0  0  0  0  0  0  0
   -1.2310   62.7720   81.9720 C   0  0  0  0  0  0  0  0  0  0  0  0
   -1.0800   63.0060   83.4480 C   0  0  0  0  0  0  0  0  0  0  0  0
   -1.7810   62.2890   84.3300 N   0  0  0  0  0  0  0  0  0  0  0  0
   -1.3970   62.7100   85.5660 N   0  0  0  0  0  0  0  0  0  0  0  0
   -1.9940   62.1420   86.7580 C   0  0  0  0  0  0  0  0  0  0  0  0
   -0.4340   63.6810   85.4330 C   0  0  0  0  0  0  0  0  0  0  0  0
    0.3160   64.4500   86.4300 C   0  0  0  0  0  0  0  0  0  0  0  0
    0.1910   64.2780   87.6420 O   0  0  0  0  0  0  0  0  0  0  0  0
    1.1470   65.3610   85.8830 N   0  0  0  0  0  0  0  0  0  0  0  0
    1.3250   65.5840   84.4960 C   0  0  0  0  0  0  0  0  0  0  0  0
    0.6670   64.8770   83.6150 N   0  0  0  0  0  0  0  0  0  0  0  0
   -0.2220   63.9160   84.1180 C   0  0  0  0  0  0  0  0  0  0  0  0
    2.2470   66.6700   84.0550 C   0  0  0  0  0  0  0  0  0  0  0  0
    1.7930   67.5870   83.0840 C   0  0  0  0  0  0  0  0  0  0  0  0
    2.6160   68.6560   82.6930 C   0  0  0  0  0  0  0  0  0  0  0  0
    3.8930   68.8130   83.2560 C   0  0  0  0  0  0  0  0  0  0  0  0
    4.3590   67.8900   84.2080 C   0  0  0  0  0  0  0  0  0  0  0  0
    3.5440   66.8040   84.6190 C   0  0  0  0  0  0  0  0  0  0  0  0
    3.9650   65.8600   85.5330 O   0  0  0  0  0  0  0  0  0  0  0  0
    5.1530   66.1100   86.2680 C   0  0  0  0  0  0  0  0  0  0  0  0
    5.2800   65.0240   87.3320 C   0  0  0  0  0  0  0  0  0  0  0  0
    2.0330   69.8340   81.4850 S   0  0  0  0  0  0  0  0  0  0  0  0
    2.7580   69.5750   80.2320 O   0  0  0  0  0  0  0  0  0  0  0  0
    0.5600   69.8270   81.5070 O   0  0  0  0  0  0  0  0  0  0  0  0
    2.5840   71.3500   82.1390 N   0  0  0  0  0  0  0  0  0  0  0  0
    1.6240   72.1440   82.9070 C   0  0  0  0  0  0  0  0  0  0  0  0
    0.7840   73.0160   81.9470 C   0  0  0  0  0  0  0  0  0  0  0  0
    1.6100   73.8530   81.0750 N   0  0  0  0  0  0  0  0  0  0  0  0
    2.1600   75.0040   81.7780 C   0  0  0  0  0  0  0  0  0  0  0  0
    2.6430   73.0690   80.3900 C   0  0  0  0  0  0  0  0  0  0  0  0
    3.4820   72.1940   81.3420 C   0  0  0  0  0  0  0  0  0  0  0  0
  1  2  1  0
  2  3  1  0
  3  4  1  0
  4  5  2  0
  4 14  1  0
  5  6  1  0
  6  7  1  0
  6  8  1  0
  8  9  1  0
  8 14  2  0
  9 10  2  0
  9 11  1  0
 11 12  1  0
 12 13  2  0
 12 15  1  0
 13 14  1  0
 15 16  2  0
 15 20  1  0
 16 17  1  0
 17 18  2  0
 17 24  1  0
 18 19  1  0
 19 20  2  0
 20 21  1  0
 21 22  1  0
 22 23  1  0
 24 25  2  0
 24 26  2  0
 24 27  1  0
 27 28  1  0
 27 33  1  0
 28 29  1  0
 29 30  1  0
 30 31  1  0
 30 32  1  0
 32 33  1  0
M  END
