
     RDKit          3D

 21 21  0  0  1  0  0  0  0  0999 V2000
   41.7360    5.1850    5.3040 N   0  0  0  0  0  0  0  0  0  0  0  0
   39.4420    6.0930    5.5980 C   0  0  0  0  0  0  0  0  0  0  0  0
   40.9880    4.7810    2.7300 O   0  0  0  0  0  0  0  0  0  0  0  0
   40.3080    4.9530    5.0260 C   0  0  1  0  0  0  0  0  0  0  0  0
   40.0360    4.7170    3.5320 C   0  0  0  0  0  0  0  0  0  0  0  0
   38.8740    4.4030    3.1980 O   0  0  0  0  0  0  0  0  0  0  0  0
   39.4220    6.1810    9.3200 O   0  0  0  0  0  0  0  0  0  0  0  0
   38.0180    3.8760    7.1290 O   0  0  0  0  0  0  0  0  0  0  0  0
   38.7210    5.0060    9.0620 N   0  0  0  0  0  0  0  0  0  0  0  0
   40.5380    8.0510    8.3090 C   0  0  0  0  0  0  0  0  0  0  0  0
   37.2340    3.0060    7.9330 C   0  0  0  0  0  0  0  0  0  0  0  0
   38.6750    4.9090    7.7500 C   0  0  0  0  0  0  0  0  0  0  0  0
   39.3410    5.9790    7.0970 C   0  0  0  0  0  0  0  0  0  0  0  0
   39.7840    6.7580    8.1420 C   0  0  0  0  0  0  0  0  0  0  0  0
   39.6630    9.0720    9.0570 C   0  0  0  0  0  0  0  0  0  0  0  0
   41.8130    7.8070    9.1210 C   0  0  0  0  0  0  0  0  0  0  0  0
   40.9640    8.6680    6.9750 C   0  0  0  0  0  0  0  0  0  0  0  0
   36.1650    2.0360    6.8530 P   0  0  0  0  0  0  0  0  0  0  0  0
   37.0780    1.2460    5.9450 O   0  0  0  0  0  0  0  0  0  0  0  0
   35.3540    1.1420    7.7660 O   0  0  0  0  0  0  0  0  0  0  0  0
   35.3150    3.0370    6.1000 O   0  0  0  0  0  0  0  0  0  0  0  0
  4  1  1  6
  2  4  1  0
  2 13  1  0
  3  5  1  0
  4  5  1  0
  5  6  2  0
  7  9  1  0
  7 14  1  0
  8 11  1  0
  8 12  1  0
  9 12  2  0
 10 14  1  0
 10 15  1  0
 10 16  1  0
 10 17  1  0
 11 18  1  0
 12 13  1  0
 13 14  2  0
 18 19  2  0
 18 20  1  0
 18 21  1  0
M  CHG  4   1   1   3  -1  20  -1  21  -1
M  END
