
     RDKit          3D

 23 24  0  0  1  0  0  0  0  0999 V2000
    8.7250   41.9080   67.9440 C   0  0  0  0  0  0  0  0  0  0  0  0
    7.9360   41.1150   68.7980 C   0  0  0  0  0  0  0  0  0  0  0  0
    9.0870   38.1110   71.7150 C   0  0  0  0  0  0  0  0  0  0  0  0
    9.6210   41.2970   67.0470 C   0  0  0  0  0  0  0  0  0  0  0  0
    8.0250   39.7060   68.7820 C   0  0  0  0  0  0  0  0  0  0  0  0
    8.8670   39.0950   67.8270 C   0  0  0  0  0  0  0  0  0  0  0  0
   14.1600   40.8270   63.8520 O   0  0  0  0  0  0  0  0  0  0  0  0
   14.7790   41.5620   64.6450 C   0  0  0  0  0  0  0  0  0  0  0  0
   14.0440   42.7940   65.2080 C   0  0  0  0  0  0  0  0  0  0  0  0
   11.7200   41.8070   65.8410 C   0  0  0  0  0  0  0  0  0  0  0  0
   12.5040   42.8120   64.9730 C   0  0  1  0  0  0  0  0  0  0  0  0
    8.4400   35.8200   71.2740 C   0  0  0  0  0  0  0  0  0  0  0  0
    9.2810   35.3590   72.3000 C   0  0  0  0  0  0  0  0  0  0  0  0
   10.0170   36.2830   73.0560 C   0  0  0  0  0  0  0  0  0  0  0  0
    9.9270   37.6520   72.7550 C   0  0  0  0  0  0  0  0  0  0  0  0
    8.3330   37.1870   70.9650 C   0  0  0  0  0  0  0  0  0  0  0  0
    7.3760   37.6140   69.8600 C   0  0  0  0  0  0  0  0  0  0  0  0
    7.2510   39.0230   69.6930 O   0  0  0  0  0  0  0  0  0  0  0  0
    9.6350   39.8870   66.9580 C   0  0  0  0  0  0  0  0  0  0  0  0
   10.4710   42.1210   66.2550 N   0  0  0  0  0  0  0  0  0  0  0  0
   12.2630   40.7490   66.1370 O   0  0  0  0  0  0  0  0  0  0  0  0
   11.9740   44.1770   65.0570 N   0  0  0  0  0  0  0  0  0  0  0  0
   15.9490   41.3330   65.0370 O   0  0  0  0  0  0  0  0  0  0  0  0
  1  2  2  0
  1  4  1  0
  2  5  1  0
  3 15  2  0
  3 16  1  0
  4 19  2  0
  4 20  1  0
  5  6  2  0
  5 18  1  0
  6 19  1  0
  7  8  2  0
  8  9  1  0
  8 23  1  0
  9 11  1  0
 10 11  1  0
 10 20  1  0
 10 21  2  0
 11 22  1  1
 12 13  1  0
 12 16  2  0
 13 14  2  0
 14 15  1  0
 16 17  1  0
 17 18  1  0
M  CHG  2  22   1  23  -1
M  END
