
     RDKit          3D

 36 40  0  0  1  0  0  0  0  0999 V2000
    2.3980   10.5320   15.6240 C   0  0  0  0  0  0  0  0  0  0  0  0
    6.0930    9.9960   16.4280 C   0  0  0  0  0  0  0  0  0  0  0  0
    6.4250    8.6260   16.3140 C   0  0  0  0  0  0  0  0  0  0  0  0
    4.9000   11.5900   14.9240 C   0  0  0  0  0  0  0  0  0  0  0  0
    3.7290   12.1100   14.3450 C   0  0  0  0  0  0  0  0  0  0  0  0
    6.8360    5.7960   16.8740 C   0  0  0  0  0  0  0  0  0  0  0  0
    6.6960    5.1860   15.4780 C   0  0  0  0  0  0  0  0  0  0  0  0
    7.5530    8.0890   16.9710 C   0  0  0  0  0  0  0  0  0  0  0  0
    8.3850    8.9530   17.7030 C   0  0  0  0  0  0  0  0  0  0  0  0
    8.1000   10.3280   17.7850 C   0  0  0  0  0  0  0  0  0  0  0  0
    6.9520   10.8460   17.1580 C   0  0  0  0  0  0  0  0  0  0  0  0
    3.2960    7.0380   14.4310 C   0  0  0  0  0  0  0  0  0  0  0  0
    2.5150    5.5990   18.2880 C   0  0  0  0  0  0  0  0  0  0  0  0
    3.0180    6.9520   18.0300 C   0  0  0  0  0  0  0  0  0  0  0  0
    2.8740    7.6480   16.8640 C   0  0  0  0  0  0  0  0  0  0  0  0
    2.2740    7.2380   15.5560 C   0  0  0  0  0  0  0  0  0  0  0  0
    2.8850    3.2580   18.8670 C   0  0  0  0  0  0  0  0  0  0  0  0
    4.1690    6.5070   22.4590 C   0  0  0  0  0  0  0  0  0  0  0  0
    4.3460    7.5160   20.2320 C   0  0  0  0  0  0  0  0  0  0  0  0
    1.1420    5.3240   18.1250 C   0  0  0  0  0  0  0  0  0  0  0  0
    2.4740   11.5870   14.6990 C   0  0  0  0  0  0  0  0  0  0  0  0
    5.6160    8.0270   20.5850 C   0  0  0  0  0  0  0  0  0  0  0  0
    3.5710    9.9830   16.1890 C   0  0  0  0  0  0  0  0  0  0  0  0
    4.8440   10.5200   15.8460 C   0  0  0  0  0  0  0  0  0  0  0  0
    7.3620    5.6670   14.5380 O   0  0  0  0  0  0  0  0  0  0  0  0
    5.9100    4.2200   15.3690 O   0  0  0  0  0  0  0  0  0  0  0  0
    7.8900    6.7540   16.9490 O   0  0  0  0  0  0  0  0  0  0  0  0
    3.3820    4.5590   18.6780 C   0  0  0  0  0  0  0  0  0  0  0  0
    3.4500    8.8870   17.0850 N   0  0  0  0  0  0  0  0  0  0  0  0
    3.9990    8.9490   18.3220 N   0  0  0  0  0  0  0  0  0  0  0  0
    3.7940    7.7740   18.8950 C   0  0  0  0  0  0  0  0  0  0  0  0
    3.6330    6.7470   21.1800 C   0  0  0  0  0  0  0  0  0  0  0  0
    5.4320    7.0260   22.8000 C   0  0  0  0  0  0  0  0  0  0  0  0
    6.1580    7.7830   21.8620 C   0  0  0  0  0  0  0  0  0  0  0  0
    1.5270    2.9840   18.6280 C   0  0  0  0  0  0  0  0  0  0  0  0
    0.6460    4.0190   18.2810 C   0  0  0  0  0  0  0  0  0  0  0  0
  1 21  2  0
  1 23  1  0
  2  3  2  0
  2 11  1  0
  2 24  1  0
  3  8  1  0
  4  5  2  0
  4 24  1  0
  5 21  1  0
  6  7  1  0
  6 27  1  0
  7 25  1  0
  7 26  2  0
  8  9  2  0
  8 27  1  0
  9 10  1  0
 10 11  2  0
 12 16  1  0
 13 14  1  0
 13 20  2  0
 13 28  1  0
 14 15  2  0
 14 31  1  0
 15 16  1  0
 15 29  1  0
 17 28  2  0
 17 35  1  0
 18 32  2  0
 18 33  1  0
 19 22  2  0
 19 31  1  0
 19 32  1  0
 20 36  1  0
 22 34  1  0
 23 24  2  0
 23 29  1  0
 29 30  1  0
 30 31  2  0
 33 34  2  0
 35 36  2  0
M  CHG  1  25  -1
M  END
