
     RDKit          3D

 28 32  0  0  1  0  0  0  0  0999 V2000
   61.2260   32.6920   -1.8090 C   0  0  0  0  0  0  0  0  0  0  0  0
   61.4150   31.2500   -1.6260 N   0  0  0  0  0  0  0  0  0  0  0  0
   58.7160   26.4310   -2.9890 C   0  0  0  0  0  0  0  0  0  0  0  0
   59.4400   27.6280   -2.8440 C   0  0  0  0  0  0  0  0  0  0  0  0
   60.4420   27.7660   -1.8510 C   0  0  0  0  0  0  0  0  0  0  0  0
   60.7170   26.6710   -0.9960 C   0  0  0  0  0  0  0  0  0  0  0  0
   59.9880   25.4820   -1.1500 C   0  0  0  0  0  0  0  0  0  0  0  0
   59.0130   25.3610   -2.1310 C   0  0  0  0  0  0  0  0  0  0  0  0
   63.6690   27.2230   -1.8760 C   0  0  0  0  0  0  0  0  0  0  0  0
   62.6420   30.7080   -1.3960 N   0  0  0  0  0  0  0  0  0  0  0  0
   64.7310   26.3450   -1.6010 C   0  0  0  0  0  0  0  0  0  0  0  0
   65.7340   27.8760   -0.1960 C   0  0  0  0  0  0  0  0  0  0  0  0
   61.9390   35.0640   -1.2380 C   0  0  0  0  0  0  0  0  0  0  0  0
   64.7030   28.8170   -0.3850 C   0  0  0  0  0  0  0  0  0  0  0  0
   60.4780   30.2630   -1.8270 C   0  0  0  0  0  0  0  0  0  0  0  0
   63.6230   28.4790   -1.2310 C   0  0  0  0  0  0  0  0  0  0  0  0
   61.1120   29.0680   -1.6990 C   0  0  0  0  0  0  0  0  0  0  0  0
   59.7740   33.1250   -1.4970 C   0  0  0  0  0  0  0  0  0  0  0  0
   59.5670   34.6300   -1.7360 C   0  0  0  0  0  0  0  0  0  0  0  0
   62.4770   29.3820   -1.4210 C   0  0  0  0  0  0  0  0  0  0  0  0
   65.7420   26.6540   -0.7670 N   0  0  0  0  0  0  0  0  0  0  0  0
   60.5340   35.4230   -0.9500 N   0  0  0  0  0  0  0  0  0  0  0  0
   62.1940   33.5650   -0.9820 C   0  0  0  0  0  0  0  0  0  0  0  0
   60.1250   24.2260   -0.3300 C   0  0  0  0  0  0  0  0  0  0  0  0
   59.1270   23.2480   -0.9880 C   0  0  0  0  0  0  0  0  0  0  0  0
   58.4220   24.0320   -2.0960 C   0  0  0  0  0  0  0  0  0  0  0  0
   57.5000   23.6110   -2.8530 N   0  0  0  0  0  0  0  0  0  0  0  0
   57.2090   22.2660   -2.4930 O   0  0  0  0  0  0  0  0  0  0  0  0
  1  2  1  0
  1 18  1  0
  1 23  1  0
  2 10  1  0
  2 15  1  0
  3  4  2  0
  3  8  1  0
  4  5  1  0
  5  6  2  0
  5 17  1  0
  6  7  1  0
  7  8  2  0
  7 24  1  0
  8 26  1  0
  9 11  2  0
  9 16  1  0
 10 20  2  0
 11 21  1  0
 12 14  1  0
 12 21  2  0
 13 22  1  0
 13 23  1  0
 14 16  2  0
 15 17  2  0
 16 20  1  0
 17 20  1  0
 18 19  1  0
 19 22  1  0
 24 25  1  0
 25 26  1  0
 26 27  2  0
 27 28  1  0
M  CHG  1  22   1
M  END
