
     RDKit          3D

 50 53  0  0  1  0  0  0  0  0999 V2000
   29.7680  -23.2410  -15.2600 C   0  0  0  0  0  0  0  0  0  0  0  0
   28.8000  -23.5120  -16.2660 C   0  0  0  0  0  0  0  0  0  0  0  0
   27.2270  -23.8970  -15.5940 S   0  0  0  0  0  0  0  0  0  0  0  0
   27.9770  -23.6170  -14.0270 C   0  0  0  0  0  0  0  0  0  0  0  0
   29.2750  -23.2940  -14.0240 N   0  0  0  0  0  0  0  0  0  0  0  0
   29.2570  -23.4000  -17.6930 C   0  0  0  0  0  0  0  0  0  0  0  0
   29.8080  -24.6040  -18.1930 O   0  0  0  0  0  0  0  0  0  0  0  0
   28.9970  -25.4730  -18.7960 C   0  0  0  0  0  0  0  0  0  0  0  0
   27.7770  -25.3350  -18.9010 O   0  0  0  0  0  0  0  0  0  0  0  0
   29.7450  -26.5300  -19.2770 N   0  0  0  0  0  0  0  0  0  0  0  0
   29.1550  -27.6690  -19.9800 C   0  0  2  0  0  0  0  0  0  0  0  0
   29.5150  -29.0070  -19.2960 C   0  0  2  0  0  0  0  0  0  0  0  0
   29.4990  -28.9950  -17.7500 C   0  0  0  0  0  0  0  0  0  0  0  0
   28.1170  -28.8700  -17.0850 C   0  0  2  0  0  0  0  0  0  0  0  0
   29.4370  -27.6120  -21.5000 C   0  0  0  0  0  0  0  0  0  0  0  0
   29.1340  -26.2580  -22.1150 C   0  0  0  0  0  0  0  0  0  0  0  0
   27.8080  -25.7790  -22.1300 C   0  0  0  0  0  0  0  0  0  0  0  0
   27.5250  -24.4990  -22.6340 C   0  0  0  0  0  0  0  0  0  0  0  0
   28.5670  -23.6930  -23.1250 C   0  0  0  0  0  0  0  0  0  0  0  0
   29.8910  -24.1710  -23.1320 C   0  0  0  0  0  0  0  0  0  0  0  0
   30.1720  -25.4580  -22.6360 C   0  0  0  0  0  0  0  0  0  0  0  0
   30.7910  -29.4400  -19.6990 O   0  0  0  0  0  0  0  0  0  0  0  0
   28.3070  -28.8750  -15.5480 C   0  0  0  0  0  0  0  0  0  0  0  0
   27.0630  -29.1390  -14.7240 C   0  0  0  0  0  0  0  0  0  0  0  0
   26.7050  -30.4630  -14.3970 C   0  0  0  0  0  0  0  0  0  0  0  0
   25.5660  -30.7140  -13.6140 C   0  0  0  0  0  0  0  0  0  0  0  0
   24.7940  -29.6410  -13.1420 C   0  0  0  0  0  0  0  0  0  0  0  0
   25.1420  -28.3170  -13.4670 C   0  0  0  0  0  0  0  0  0  0  0  0
   26.2760  -28.0640  -14.2610 C   0  0  0  0  0  0  0  0  0  0  0  0
   27.2630  -29.9540  -17.5730 N   0  0  0  0  0  0  0  0  0  0  0  0
   24.1000  -31.5090  -17.8120 N   0  0  0  0  0  0  0  0  0  0  0  0
   25.3420  -31.1470  -18.4800 C   0  0  2  0  0  0  0  0  0  0  0  0
   25.9440  -29.8990  -17.8140 C   0  0  0  0  0  0  0  0  0  0  0  0
   25.2370  -28.9330  -17.5240 O   0  0  0  0  0  0  0  0  0  0  0  0
   25.0480  -30.9480  -19.9970 C   0  0  0  0  0  0  0  0  0  0  0  0
   23.9070  -29.9650  -20.3310 C   0  0  0  0  0  0  0  0  0  0  0  0
   26.3060  -30.5980  -20.8060 C   0  0  0  0  0  0  0  0  0  0  0  0
   24.0090  -32.3000  -16.7340 C   0  0  0  0  0  0  0  0  0  0  0  0
   22.7390  -32.5980  -16.3760 N   0  0  0  0  0  0  0  0  0  0  0  0
   21.5230  -32.0160  -16.9760 C   0  0  0  0  0  0  0  0  0  0  0  0
   24.9990  -32.7790  -16.1760 O   0  0  0  0  0  0  0  0  0  0  0  0
   21.1830  -32.6250  -18.3090 C   0  0  0  0  0  0  0  0  0  0  0  0
   20.5210  -32.0320  -19.3540 C   0  0  0  0  0  0  0  0  0  0  0  0
   20.3710  -33.1020  -20.7230 S   0  0  0  0  0  0  0  0  0  0  0  0
   21.2130  -34.3490  -19.8060 C   0  0  0  0  0  0  0  0  0  0  0  0
   21.5630  -33.9380  -18.5890 N   0  0  0  0  0  0  0  0  0  0  0  0
   21.5560  -35.7180  -20.3110 C   0  0  0  0  0  0  0  0  0  0  0  0
   20.3240  -36.5260  -20.7320 C   0  0  0  0  0  0  0  0  0  0  0  0
   22.6270  -35.6730  -21.4070 C   0  0  0  0  0  0  0  0  0  0  0  0
   22.5210  -33.7000  -15.4490 C   0  0  0  0  0  0  0  0  0  0  0  0
  1  2  2  0
  1  5  1  0
  2  3  1  0
  2  6  1  0
  3  4  1  0
  4  5  2  0
  6  7  1  0
  7  8  1  0
  8  9  2  0
  8 10  1  0
 10 11  1  0
 11 12  1  0
 11 15  1  6
 12 13  1  0
 12 22  1  1
 14 13  1  6
 14 23  1  0
 14 30  1  0
 15 16  1  0
 16 17  2  0
 16 21  1  0
 17 18  1  0
 18 19  2  0
 19 20  1  0
 20 21  2  0
 23 24  1  0
 24 25  2  0
 24 29  1  0
 25 26  1  0
 26 27  2  0
 27 28  1  0
 28 29  2  0
 30 33  1  0
 32 31  1  1
 31 38  1  0
 32 33  1  0
 32 35  1  0
 33 34  2  0
 35 36  1  0
 35 37  1  0
 38 39  1  0
 38 41  2  0
 39 40  1  0
 39 50  1  0
 40 42  1  0
 42 43  2  0
 42 46  1  0
 43 44  1  0
 44 45  1  0
 45 46  2  0
 45 47  1  0
 47 48  1  0
 47 49  1  0
M  END
