
     RDKit          3D

 38 39  0  0  1  0  0  0  0  0999 V2000
   52.7660   52.8300   21.5990 O   0  0  0  0  0  0  0  0  0  0  0  0
   52.2990   53.1960   22.6990 C   0  0  0  0  0  0  0  0  0  0  0  0
   51.4470   54.1020   22.8470 O   0  0  0  0  0  0  0  0  0  0  0  0
   52.7980   52.4430   23.9410 C   0  0  0  0  0  0  0  0  0  0  0  0
   52.4090   53.1080   25.2810 C   0  0  0  0  0  0  0  0  0  0  0  0
   52.8550   52.3530   26.5600 C   0  0  2  0  0  0  0  0  0  0  0  0
   52.5170   50.9260   26.4860 N   0  0  0  0  0  0  0  0  0  0  0  0
   53.3910   49.9050   26.4110 C   0  0  0  0  0  0  0  0  0  0  0  0
   54.6110   50.0610   26.4650 O   0  0  0  0  0  0  0  0  0  0  0  0
   52.8040   48.5180   26.3280 C   0  0  0  0  0  0  0  0  0  0  0  0
   53.5880   47.3960   26.6780 C   0  0  0  0  0  0  0  0  0  0  0  0
   53.0530   46.0960   26.5990 C   0  0  0  0  0  0  0  0  0  0  0  0
   51.7240   45.8820   26.1790 C   0  0  0  0  0  0  0  0  0  0  0  0
   50.9500   46.9970   25.7890 C   0  0  0  0  0  0  0  0  0  0  0  0
   51.4890   48.2970   25.8620 C   0  0  0  0  0  0  0  0  0  0  0  0
   51.1540   44.4590   26.2010 C   0  0  1  0  0  0  0  0  0  0  0  0
   49.7110   44.3980   26.7650 C   0  0  0  0  0  0  0  0  0  0  0  0
   49.6310   44.7170   28.2630 C   0  0  0  0  0  0  0  0  0  0  0  0
   48.2540   44.3520   28.8430 C   0  0  0  0  0  0  0  0  0  0  0  0
   48.0420   44.7010   30.3340 C   0  0  1  0  0  0  0  0  0  0  0  0
   49.0050   43.9360   31.2690 C   0  0  0  0  0  0  0  0  0  0  0  0
   49.3740   42.7970   30.9950 O   0  0  0  0  0  0  0  0  0  0  0  0
   49.3780   44.5420   32.4070 N   0  0  0  0  0  0  0  0  0  0  0  0
   49.0650   45.9300   32.7240 C   0  0  2  0  0  0  0  0  0  0  0  0
   48.9150   46.2360   34.1560 N   0  0  0  0  0  0  0  0  0  0  0  0
   47.9090   46.4870   32.0320 N   0  0  0  0  0  0  0  0  0  0  0  0
   48.0570   46.2280   30.6040 C   0  0  2  0  0  0  0  0  0  0  0  0
   46.9560   46.9070   29.9000 N   0  0  0  0  0  0  0  0  0  0  0  0
   51.3740   43.6340   24.8900 C   0  0  0  0  0  0  0  0  0  0  0  0
   50.7430   42.3770   25.0380 O   0  0  0  0  0  0  0  0  0  0  0  0
   52.7690   43.4750   24.7200 O   0  0  0  0  0  0  0  0  0  0  0  0
   50.8210   44.2390   23.5800 C   0  0  0  0  0  0  0  0  0  0  0  0
   51.4490   45.3740   23.2760 F   0  0  0  0  0  0  0  0  0  0  0  0
   49.5170   44.4950   23.6970 F   0  0  0  0  0  0  0  0  0  0  0  0
   50.9940   43.3810   22.5720 F   0  0  0  0  0  0  0  0  0  0  0  0
   52.2570   53.0090   27.8170 C   0  0  0  0  0  0  0  0  0  0  0  0
   52.7770   54.0840   28.1910 O   0  0  0  0  0  0  0  0  0  0  0  0
   51.2810   52.4650   28.3810 O   0  0  0  0  0  0  0  0  0  0  0  0
  1  2  1  0
  2  3  2  0
  2  4  1  0
  4  5  1  0
  6  5  1  6
  6  7  1  0
  6 36  1  0
  7  8  1  0
  8  9  2  0
  8 10  1  0
 10 11  2  0
 10 15  1  0
 11 12  1  0
 12 13  2  0
 13 14  1  0
 13 16  1  0
 14 15  2  0
 16 17  1  6
 16 29  1  0
 17 18  1  0
 18 19  1  0
 20 19  1  6
 20 21  1  0
 20 27  1  0
 21 22  2  0
 21 23  1  0
 23 24  1  0
 24 25  1  1
 24 26  1  0
 26 27  1  0
 27 28  1  6
 29 30  1  0
 29 31  1  0
 29 32  1  0
 32 33  1  0
 32 34  1  0
 32 35  1  0
 36 37  2  0
 36 38  1  0
M  CHG  4   1  -1  25   1  28   1  38  -1
M  END
