1uyg
     RDKit          3D

 22 24  0  0  1  0  0  0  0  0999 V2000
    7.6800   10.1520   22.7010 C   0  0  0  0  0  0  0  0  0  0  0  0
    2.2500    9.9780   25.3960 N   0  0  0  0  0  0  0  0  0  0  0  0
    0.9690   10.0930   25.8800 C   0  0  0  0  0  0  0  0  0  0  0  0
    0.4790    9.6880   27.0810 N   0  0  0  0  0  0  0  0  0  0  0  0
   -0.8220    9.9600   27.2070 C   0  0  0  0  0  0  0  0  0  0  0  0
    3.5050   10.5240   23.3320 C   0  0  0  0  0  0  0  0  0  0  0  0
   -1.6210   10.5470   26.3060 N   0  0  0  0  0  0  0  0  0  0  0  0
    0.2410   10.7260   24.8420 C   0  0  0  0  0  0  0  0  0  0  0  0
   -1.1330   10.9390   25.1060 C   0  0  0  0  0  0  0  0  0  0  0  0
   -1.9750   11.5010   24.2290 N   0  0  0  0  0  0  0  0  0  0  0  0
    1.0820   10.9900   23.7710 N   0  0  0  0  0  0  0  0  0  0  0  0
    2.2440   10.5100   24.1300 C   0  0  0  0  0  0  0  0  0  0  0  0
    5.8530   11.4980   23.4970 C   0  0  0  0  0  0  0  0  0  0  0  0
    4.4630   11.6460   23.7170 C   0  0  0  0  0  0  0  0  0  0  0  0
    3.9650   12.8390   24.2870 C   0  0  0  0  0  0  0  0  0  0  0  0
    6.7200   12.5550   23.8740 C   0  0  0  0  0  0  0  0  0  0  0  0
    6.2140   13.7300   24.4630 C   0  0  0  0  0  0  0  0  0  0  0  0
    4.8240   13.8790   24.6780 C   0  0  0  0  0  0  0  0  0  0  0  0
   -1.3960    9.5940   28.3760 F   0  0  0  0  0  0  0  0  0  0  0  0
    4.2300   14.9780   25.2560 O   0  0  0  0  0  0  0  0  0  0  0  0
    6.2890   10.3220   22.9200 O   0  0  0  0  0  0  0  0  0  0  0  0
    5.0710   16.0160   25.7240 C   0  0  0  0  0  0  0  0  0  0  0  0
  1 21  1  0
  2  3  1  0
  2 12  2  0
  3  4  2  0
  3  8  1  0
  4  5  1  0
  5  7  2  0
  5 19  1  0
  6 12  1  0
  6 14  1  0
  7  9  1  0
  8  9  2  0
  8 11  1  0
  9 10  1  0
 11 12  1  0
 13 14  2  0
 13 16  1  0
 13 21  1  0
 14 15  1  0
 15 18  2  0
 16 17  2  0
 17 18  1  0
 18 20  1  0
 20 22  1  0
M  CHG  1   2   1
M  END
