
     RDKit          3D

 33 36  0  0  1  0  0  0  0  0999 V2000
   79.6930  108.2970   25.2950 S   0  0  0  0  0  0  0  0  0  0  0  0
   78.2780  108.1510   25.6690 O   0  0  0  0  0  0  0  0  0  0  0  0
   80.6980  108.6890   26.2940 O   0  0  0  0  0  0  0  0  0  0  0  0
   80.2080  106.8010   24.6060 N   0  0  0  0  0  0  0  0  0  0  0  0
   79.3880  106.1370   23.5980 C   0  0  0  0  0  0  0  0  0  0  0  0
   79.8090  109.4600   23.9430 C   0  0  0  0  0  0  0  0  0  0  0  0
   78.8620  110.4930   23.8460 C   0  0  0  0  0  0  0  0  0  0  0  0
   78.9630  111.4300   22.8020 C   0  0  0  0  0  0  0  0  0  0  0  0
   79.9910  111.3440   21.8300 C   0  0  0  0  0  0  0  0  0  0  0  0
   80.9180  110.2800   21.9390 C   0  0  0  0  0  0  0  0  0  0  0  0
   80.8360  109.3450   22.9890 C   0  0  0  0  0  0  0  0  0  0  0  0
   80.1230  112.3420   20.7410 C   0  0  0  0  0  0  0  0  0  0  0  0
   79.0100  112.8170   19.9940 C   0  0  0  0  0  0  0  0  0  0  0  0
   77.7660  112.3540   20.2470 N   0  0  0  0  0  0  0  0  0  0  0  0
   76.7090  112.8160   19.5520 C   0  0  0  0  0  0  0  0  0  0  0  0
   76.9140  113.7980   18.5590 C   0  0  0  0  0  0  0  0  0  0  0  0
   78.1450  114.2570   18.2500 N   0  0  0  0  0  0  0  0  0  0  0  0
   79.1950  113.7700   18.9500 C   0  0  0  0  0  0  0  0  0  0  0  0
   80.5000  114.1900   18.6360 C   0  0  0  0  0  0  0  0  0  0  0  0
   81.6030  113.7400   19.3730 C   0  0  0  0  0  0  0  0  0  0  0  0
   81.4100  112.8330   20.4250 C   0  0  0  0  0  0  0  0  0  0  0  0
   75.3940  112.2410   19.9280 C   0  0  0  0  0  0  0  0  0  0  0  0
   75.3210  111.1010   20.7680 C   0  0  0  0  0  0  0  0  0  0  0  0
   74.0850  110.5500   21.1710 C   0  0  0  0  0  0  0  0  0  0  0  0
   72.8950  111.1470   20.7170 C   0  0  0  0  0  0  0  0  0  0  0  0
   72.9280  112.2400   19.8290 C   0  0  0  0  0  0  0  0  0  0  0  0
   74.1800  112.7910   19.4570 C   0  0  0  0  0  0  0  0  0  0  0  0
   71.7170  112.7070   19.3700 O   0  0  0  0  0  0  0  0  0  0  0  0
   71.7250  113.5150   18.2060 C   0  0  0  0  0  0  0  0  0  0  0  0
   71.6910  110.6280   21.1130 O   0  0  0  0  0  0  0  0  0  0  0  0
   71.1660  111.2750   22.2610 C   0  0  0  0  0  0  0  0  0  0  0  0
   73.9650  109.4470   21.9890 O   0  0  0  0  0  0  0  0  0  0  0  0
   75.1460  108.7620   22.3790 C   0  0  0  0  0  0  0  0  0  0  0  0
  1  2  2  0
  1  3  2  0
  1  4  1  0
  1  6  1  0
  4  5  1  0
  6  7  2  0
  6 11  1  0
  7  8  1  0
  8  9  2  0
  9 10  1  0
  9 12  1  0
 10 11  2  0
 12 13  1  0
 12 21  2  0
 13 14  2  0
 13 18  1  0
 14 15  1  0
 15 16  2  0
 15 22  1  0
 16 17  1  0
 17 18  2  0
 18 19  1  0
 19 20  2  0
 20 21  1  0
 22 23  2  0
 22 27  1  0
 23 24  1  0
 24 25  2  0
 24 32  1  0
 25 26  1  0
 25 30  1  0
 26 27  2  0
 26 28  1  0
 28 29  1  0
 30 31  1  0
 32 33  1  0
M  END
