
     RDKit          3D

 27 29  0  0  1  0  0  0  0  0999 V2000
   12.2360   13.3350   12.1200 C   0  0  0  0  0  0  0  0  0  0  0  0
   12.3510   14.8330   11.9220 C   0  0  0  0  0  0  0  0  0  0  0  0
   12.8730   15.6240   12.9640 C   0  0  0  0  0  0  0  0  0  0  0  0
   12.9740   17.0180   12.8160 C   0  0  0  0  0  0  0  0  0  0  0  0
   12.5570   17.6280   11.6200 C   0  0  0  0  0  0  0  0  0  0  0  0
   12.0520   16.8410   10.5680 C   0  0  0  0  0  0  0  0  0  0  0  0
   11.9400   15.4380   10.7100 C   0  0  0  0  0  0  0  0  0  0  0  0
   11.3840   14.5710    9.5830 C   0  0  0  0  0  0  0  0  0  0  0  0
   10.6600   15.2600    8.5100 N   0  0  0  0  0  0  0  0  0  0  0  0
    9.1920   15.2370    8.5110 C   0  0  1  0  0  0  0  0  0  0  0  0
    8.6120   13.8380    8.3080 C   0  0  0  0  0  0  0  0  0  0  0  0
    8.0810   13.4220    9.6740 C   0  0  0  0  0  0  0  0  0  0  0  0
    7.8400   14.6680   10.4070 N   0  0  0  0  0  0  0  0  0  0  0  0
    8.5660   15.7790    9.8030 C   0  0  0  0  0  0  0  0  0  0  0  0
    7.6670   14.6330   12.1140 S   0  0  0  0  0  0  0  0  0  0  0  0
    6.2890   13.4800   12.2980 C   0  0  0  0  0  0  0  0  0  0  0  0
    7.1940   15.9540   12.5430 O   0  0  0  0  0  0  0  0  0  0  0  0
    8.8850   14.0490   12.6920 O   0  0  0  0  0  0  0  0  0  0  0  0
   11.3650   15.5420    7.3150 C   0  0  0  0  0  0  0  0  0  0  0  0
   12.7670   15.7450    7.3380 C   0  0  0  0  0  0  0  0  0  0  0  0
   13.4750   16.0550    6.1640 C   0  0  0  0  0  0  0  0  0  0  0  0
   12.7960   16.2030    4.9430 C   0  0  0  0  0  0  0  0  0  0  0  0
   13.5290   16.5940    3.7520 C   0  0  0  0  0  0  0  0  0  0  0  0
   14.1050   16.9090    2.8020 N   0  0  0  0  0  0  0  0  0  0  0  0
   11.4050   15.9800    4.8940 C   0  0  0  0  0  0  0  0  0  0  0  0
   10.5280   16.1200    3.4160 Cl  0  0  0  0  0  0  0  0  0  0  0  0
   10.7070   15.6360    6.0630 C   0  0  0  0  0  0  0  0  0  0  0  0
  1  2  1  0
  2  3  2  0
  2  7  1  0
  3  4  1  0
  4  5  2  0
  5  6  1  0
  6  7  2  0
  7  8  1  0
  8  9  1  0
 10  9  1  1
  9 19  1  0
 10 11  1  0
 10 14  1  0
 11 12  1  0
 12 13  1  0
 13 14  1  0
 13 15  1  0
 15 16  1  0
 15 17  2  0
 15 18  2  0
 19 20  2  0
 19 27  1  0
 20 21  1  0
 21 22  2  0
 22 23  1  0
 22 25  1  0
 23 24  3  0
 25 26  1  0
 25 27  2  0
M  END
