
     RDKit          3D

 17 18  0  0  1  0  0  0  0  0999 V2000
   46.4510   12.2880    2.7450 C   0  0  0  0  0  0  0  0  0  0  0  0
   46.4900   11.0150    2.1440 C   0  0  0  0  0  0  0  0  0  0  0  0
   45.7910   10.8080    0.9410 C   0  0  0  0  0  0  0  0  0  0  0  0
   45.0830   11.7630    0.3030 N   0  0  0  0  0  0  0  0  0  0  0  0
   45.0890   12.9890    0.9040 C   0  0  0  0  0  0  0  0  0  0  0  0
   45.7440   13.3430    2.1240 C   0  0  0  0  0  0  0  0  0  0  0  0
   44.2680   14.3670    0.2120 S   0  0  0  0  0  0  0  0  0  0  0  0
   44.7470   15.3780    1.5520 C   0  0  0  0  0  0  0  0  0  0  0  0
   45.5490   14.7360    2.4760 C   0  0  0  0  0  0  0  0  0  0  0  0
   44.2330   16.7650    1.5080 C   0  0  0  0  0  0  0  0  0  0  0  0
   43.6250   17.1680    0.4940 O   0  0  0  0  0  0  0  0  0  0  0  0
   46.0520   15.3160    3.5880 O   0  0  0  0  0  0  0  0  0  0  0  0
   47.2550   16.0510    3.3990 C   0  0  0  0  0  0  0  0  0  0  0  0
   47.6540   16.7920    4.6820 C   0  0  0  0  0  0  0  0  0  0  0  0
   48.7320   17.4210    4.6630 O   0  0  0  0  0  0  0  0  0  0  0  0
   44.4090   17.5050    2.4980 O   0  0  0  0  0  0  0  0  0  0  0  0
   46.8960   16.7240    5.6780 O   0  0  0  0  0  0  0  0  0  0  0  0
  1  2  2  0
  1  6  1  0
  2  3  1  0
  3  4  2  0
  4  5  1  0
  5  6  2  0
  5  7  1  0
  6  9  1  0
  7  8  1  0
  8  9  2  0
  8 10  1  0
  9 12  1  0
 10 11  2  0
 10 16  1  0
 12 13  1  0
 13 14  1  0
 14 15  2  0
 14 17  1  0
M  CHG  2  16  -1  17  -1
M  END
