
     RDKit          3D

 33 36  0  0  1  0  0  0  0  0999 V2000
   45.3360   23.1080   50.0300 C   0  0  0  0  0  0  0  0  0  0  0  0
   40.4390   19.3910   48.0540 C   0  0  0  0  0  0  0  0  0  0  0  0
   40.4640   13.8440   45.0340 C   0  0  0  0  0  0  0  0  0  0  0  0
   39.6960   14.9090   45.5320 C   0  0  0  0  0  0  0  0  0  0  0  0
   41.3970   13.2050   45.8680 C   0  0  0  0  0  0  0  0  0  0  0  0
   39.8810   15.3520   46.8530 C   0  0  0  0  0  0  0  0  0  0  0  0
   41.5620   13.6280   47.2000 C   0  0  0  0  0  0  0  0  0  0  0  0
   36.0160   15.9480   53.4380 C   0  0  0  0  0  0  0  0  0  0  0  0
   36.1230   14.9060   52.5010 C   0  0  0  0  0  0  0  0  0  0  0  0
   38.0330   16.9590   52.5210 C   0  0  0  0  0  0  0  0  0  0  0  0
   42.6970   21.1680   48.0710 C   0  0  0  0  0  0  0  0  0  0  0  0
   43.9440   22.0380   48.2960 C   0  0  0  0  0  0  0  0  0  0  0  0
   39.7920   14.9100   49.9650 C   0  0  0  0  0  0  0  0  0  0  0  0
   44.4560   20.8340   50.3760 C   0  0  0  0  0  0  0  0  0  0  0  0
   40.1080   17.1720   50.2890 C   0  0  0  0  0  0  0  0  0  0  0  0
   42.2840   14.7240   49.8550 C   0  0  0  0  0  0  0  0  0  0  0  0
   40.8250   14.7270   47.7010 C   0  0  0  0  0  0  0  0  0  0  0  0
   36.9740   16.9750   53.4470 C   0  0  0  0  0  0  0  0  0  0  0  0
   37.1770   14.8840   51.5670 C   0  0  0  0  0  0  0  0  0  0  0  0
   38.1500   15.9180   51.5730 C   0  0  0  0  0  0  0  0  0  0  0  0
   42.8690   19.7590   48.6860 C   0  0  1  0  0  0  0  0  0  0  0  0
   39.3080   15.9420   50.6490 C   0  0  0  0  0  0  0  0  0  0  0  0
   43.2320   19.9280   50.1720 C   0  0  2  0  0  0  0  0  0  0  0  0
   41.9140   17.5060   48.5370 C   0  0  0  0  0  0  0  0  0  0  0  0
   41.0070   15.2510   49.1360 C   0  0  1  0  0  0  0  0  0  0  0  0
   44.2410   22.1580   49.7440 N   0  0  1  0  0  0  0  0  0  0  0  0
   41.0200   16.7320   49.2120 N   0  0  0  0  0  0  0  0  0  0  0  0
   41.7040   18.8440   48.5640 N   0  0  0  0  0  0  0  0  0  0  0  0
   42.0630   13.4500   50.4070 O   0  0  0  0  0  0  0  0  0  0  0  0
   42.8990   17.0250   47.9770 O   0  0  0  0  0  0  0  0  0  0  0  0
   36.8820   17.9770   54.3530 F   0  0  0  0  0  0  0  0  0  0  0  0
   37.2210   13.8690   50.6720 F   0  0  0  0  0  0  0  0  0  0  0  0
   42.1980   20.4900   50.7890 F   0  0  0  0  0  0  0  0  0  0  0  0
 26  1  1  6
  2 28  1  0
  3  4  2  0
  3  5  1  0
  4  6  1  0
  5  7  2  0
  6 17  2  0
  7 17  1  0
  8  9  2  0
  8 18  1  0
  9 19  1  0
 10 18  2  0
 10 20  1  0
 11 12  1  0
 11 21  1  0
 12 26  1  0
 13 22  2  0
 13 25  1  0
 14 23  1  0
 14 26  1  0
 15 22  1  0
 15 27  1  0
 25 16  1  1
 16 29  1  0
 17 25  1  0
 18 31  1  0
 19 20  2  0
 19 32  1  0
 20 22  1  0
 21 23  1  0
 21 28  1  1
 23 33  1  1
 24 27  1  0
 24 28  1  0
 24 30  2  0
 25 27  1  0
M  CHG  1  26   1
M  END
