lingo_3d_mol_dude_nh_2ojg
     RDKit          3D

 21 23  0  0  1  0  0  0  0  0999 V2000
   -9.1810   13.4260   41.0980 C   0  0  0  0  0  0  0  0  0  0  0  0
  -10.6320   13.2290   41.0810 N   0  0  0  0  0  0  0  0  0  0  0  0
  -11.3610   14.2880   41.7800 C   0  0  0  0  0  0  0  0  0  0  0  0
  -11.1970   12.1720   40.4440 C   0  0  0  0  0  0  0  0  0  0  0  0
  -10.5180   11.3410   39.8380 O   0  0  0  0  0  0  0  0  0  0  0  0
  -12.6740   12.0330   40.3900 C   0  0  0  0  0  0  0  0  0  0  0  0
  -13.6990   12.3900   41.2250 C   0  0  0  0  0  0  0  0  0  0  0  0
  -14.9100   11.9370   40.6320 C   0  0  0  0  0  0  0  0  0  0  0  0
  -14.6210   11.2640   39.4790 C   0  0  0  0  0  0  0  0  0  0  0  0
  -13.2510   11.3250   39.3500 N   0  0  0  0  0  0  0  0  0  0  0  0
  -16.2290   12.1520   41.1950 C   0  0  0  0  0  0  0  0  0  0  0  0
  -17.2390   11.2330   41.0180 N   0  0  0  0  0  0  0  0  0  0  0  0
  -18.3910   11.5920   41.6190 N   0  0  0  0  0  0  0  0  0  0  0  0
  -18.1120   12.7420   42.2070 C   0  0  0  0  0  0  0  0  0  0  0  0
  -16.7720   13.1440   41.9640 C   0  0  0  0  0  0  0  0  0  0  0  0
  -16.1550   14.3950   42.4250 C   0  0  0  0  0  0  0  0  0  0  0  0
  -15.4100   15.1970   41.5370 C   0  0  0  0  0  0  0  0  0  0  0  0
  -14.8500   16.4190   41.9510 C   0  0  0  0  0  0  0  0  0  0  0  0
  -15.0180   16.8450   43.2800 C   0  0  0  0  0  0  0  0  0  0  0  0
  -15.7470   16.0470   44.1810 C   0  0  0  0  0  0  0  0  0  0  0  0
  -16.3210   14.8340   43.7550 C   0  0  0  0  0  0  0  0  0  0  0  0
  1  2  1  0
  2  3  1  0
  2  4  1  0
  4  5  2  0
  4  6  1  0
  6  7  2  0
  6 10  1  0
  7  8  1  0
  8  9  2  0
  8 11  1  0
  9 10  1  0
 11 12  2  0
 11 15  1  0
 12 13  1  0
 13 14  1  0
 14 15  2  0
 15 16  1  0
 16 17  2  0
 16 21  1  0
 17 18  1  0
 18 19  2  0
 19 20  1  0
 20 21  2  0
M  CHG  1  12   1
M  END
