
     RDKit          3D

 24 25  0  0  1  0  0  0  0  0999 V2000
   12.5280   51.6410   -5.2290 C   0  0  0  0  0  0  0  0  0  0  0  0
   14.5810   53.0720   -4.7920 C   0  0  0  0  0  0  0  0  0  0  0  0
   12.4210   48.5100    0.2990 C   0  0  0  0  0  0  0  0  0  0  0  0
   21.9590   41.7690   -2.6840 N   0  0  0  0  0  0  0  0  0  0  0  0
   15.0300   49.8230   -5.3090 O   0  0  0  0  0  0  0  0  0  0  0  0
   15.8240   50.7550   -3.0950 O   0  0  0  0  0  0  0  0  0  0  0  0
   21.0340   42.3980   -2.3970 C   0  0  0  0  0  0  0  0  0  0  0  0
   18.6050   42.9090   -2.5600 C   0  0  0  0  0  0  0  0  0  0  0  0
   20.0660   44.3400   -1.2400 C   0  0  0  0  0  0  0  0  0  0  0  0
   17.5250   43.7770   -2.3050 C   0  0  0  0  0  0  0  0  0  0  0  0
   18.9870   45.2010   -0.9950 C   0  0  0  0  0  0  0  0  0  0  0  0
   16.9180   47.2930   -1.1970 C   0  0  0  0  0  0  0  0  0  0  0  0
   15.2450   45.5420   -1.2960 C   0  0  0  0  0  0  0  0  0  0  0  0
   15.9090   48.2400   -0.9950 C   0  0  0  0  0  0  0  0  0  0  0  0
   14.2270   46.5030   -1.1070 C   0  0  0  0  0  0  0  0  0  0  0  0
   12.9560   49.6500   -1.9250 C   0  0  0  0  0  0  0  0  0  0  0  0
   13.6560   49.3340   -3.1830 N   0  0  0  0  0  0  0  0  0  0  0  0
   19.8820   43.2030   -2.0440 C   0  0  0  0  0  0  0  0  0  0  0  0
   17.7040   44.9500   -1.5350 C   0  0  0  0  0  0  0  0  0  0  0  0
   16.6090   45.9220   -1.3350 C   0  0  0  0  0  0  0  0  0  0  0  0
   14.5600   47.8630   -0.9350 C   0  0  0  0  0  0  0  0  0  0  0  0
   13.6960   51.9330   -4.2760 C   0  0  0  0  0  0  0  0  0  0  0  0
   13.5330   48.9580   -0.6650 C   0  0  2  0  0  0  0  0  0  0  0  0
   14.7230   50.4200   -4.0030 S   0  0  0  0  0  0  0  0  0  0  0  0
  1 22  1  0
  2 22  1  0
 23  3  1  6
  4  7  3  0
  5 24  2  0
  6 24  2  0
  7 18  1  0
  8 10  2  0
  8 18  1  0
  9 11  1  0
  9 18  2  0
 10 19  1  0
 11 19  2  0
 12 14  2  0
 12 20  1  0
 13 15  1  0
 13 20  2  0
 14 21  1  0
 15 21  2  0
 16 17  1  0
 16 23  1  0
 17 24  1  0
 19 20  1  0
 21 23  1  0
 22 24  1  0
M  END
