
     RDKit          3D

 30 33  0  0  1  0  0  0  0  0999 V2000
   24.8970    5.1680   31.4060 C   0  0  0  0  0  0  0  0  0  0  0  0
   24.4430    5.1310   30.0780 C   0  0  0  0  0  0  0  0  0  0  0  0
   23.5440    4.1320   29.6460 C   0  0  0  0  0  0  0  0  0  0  0  0
   23.0220    3.2260   30.5890 C   0  0  0  0  0  0  0  0  0  0  0  0
   23.4700    3.2650   31.9250 C   0  0  0  0  0  0  0  0  0  0  0  0
   24.4280    4.2240   32.3340 C   0  0  0  0  0  0  0  0  0  0  0  0
   27.5710    6.5150   22.9570 C   0  0  0  0  0  0  0  0  0  0  0  0
   28.2290    6.3680   21.7870 N   0  0  0  0  0  0  0  0  0  0  0  0
   26.9320    5.4550   23.6310 C   0  0  0  0  0  0  0  0  0  0  0  0
   26.9800    4.1640   23.0590 C   0  0  0  0  0  0  0  0  0  0  0  0
   27.6610    4.0070   21.8330 C   0  0  0  0  0  0  0  0  0  0  0  0
   28.2670    5.1340   21.2420 C   0  0  0  0  0  0  0  0  0  0  0  0
   23.4380    4.1110   25.8540 C   0  0  0  0  0  0  0  0  0  0  0  0
   22.1280    4.5920   25.6250 C   0  0  0  0  0  0  0  0  0  0  0  0
   21.6300    4.6420   24.3130 C   0  0  0  0  0  0  0  0  0  0  0  0
   22.4610    4.2090   23.2670 C   0  0  0  0  0  0  0  0  0  0  0  0
   23.7030    3.7260   23.4630 N   0  0  0  0  0  0  0  0  0  0  0  0
   24.1960    3.6800   24.7220 C   0  0  0  0  0  0  0  0  0  0  0  0
   25.4970    3.1660   24.8750 N   0  0  0  0  0  0  0  0  0  0  0  0
   26.4040    2.9370   23.7570 C   0  0  0  0  0  0  0  0  0  0  0  0
   24.0170    4.1640   27.2460 C   0  0  0  0  0  0  0  0  0  0  0  0
   23.1670    4.0220   28.2800 N   0  0  0  0  0  0  0  0  0  0  0  0
   25.2310    4.2730   27.4040 O   0  0  0  0  0  0  0  0  0  0  0  0
   24.9590    4.2540   33.5990 O   0  0  0  0  0  0  0  0  0  0  0  0
   23.2040    2.4380   36.2790 C   0  0  0  0  0  0  0  0  0  0  0  0
   22.4220    3.4710   36.8280 C   0  0  0  0  0  0  0  0  0  0  0  0
   22.5050    4.7740   36.3010 C   0  0  0  0  0  0  0  0  0  0  0  0
   23.3450    5.0390   35.2030 C   0  0  0  0  0  0  0  0  0  0  0  0
   24.1270    4.0030   34.6540 C   0  0  0  0  0  0  0  0  0  0  0  0
   24.0690    2.7070   35.2030 C   0  0  0  0  0  0  0  0  0  0  0  0
  1  2  2  0
  1  6  1  0
  2  3  1  0
  3  4  2  0
  3 22  1  0
  4  5  1  0
  5  6  2  0
  6 24  1  0
  7  8  2  0
  7  9  1  0
  8 12  1  0
  9 10  2  0
 10 11  1  0
 10 20  1  0
 11 12  2  0
 13 14  2  0
 13 18  1  0
 13 21  1  0
 14 15  1  0
 15 16  2  0
 16 17  1  0
 17 18  2  0
 18 19  1  0
 19 20  1  0
 21 22  1  0
 21 23  2  0
 24 29  1  0
 25 26  2  0
 25 30  1  0
 26 27  1  0
 27 28  2  0
 28 29  1  0
 29 30  2  0
M  END
