
     RDKit          3D

 24 26  0  0  1  0  0  0  0  0999 V2000
   18.2860    7.4200    2.6840 N   0  0  0  0  0  0  0  0  0  0  0  0
   17.8270    6.8170    3.7940 C   0  0  0  0  0  0  0  0  0  0  0  0
   16.8270    5.9330    3.7800 N   0  0  0  0  0  0  0  0  0  0  0  0
   16.2350    5.7070    2.5870 C   0  0  0  0  0  0  0  0  0  0  0  0
   16.6220    6.3050    1.3870 C   0  0  0  0  0  0  0  0  0  0  0  0
   17.7260    7.1960    1.4670 C   0  0  0  0  0  0  0  0  0  0  0  0
   14.2940    2.1400   -2.6020 C   0  0  0  0  0  0  0  0  0  0  0  0
   15.5290    5.6310   -4.3700 C   0  0  0  0  0  0  0  0  0  0  0  0
   18.3850    7.1370    5.0050 N   0  0  0  0  0  0  0  0  0  0  0  0
   18.2900    7.8730    0.3870 N   0  0  0  0  0  0  0  0  0  0  0  0
   15.8020    6.3330   -1.0860 C   0  0  0  0  0  0  0  0  0  0  0  0
   10.8950    4.5720   -1.9410 C   0  0  0  0  0  0  0  0  0  0  0  0
   11.0840    5.9640   -1.9110 C   0  0  0  0  0  0  0  0  0  0  0  0
   12.0080    3.7120   -1.9630 C   0  0  0  0  0  0  0  0  0  0  0  0
   12.3860    6.4910   -1.8600 C   0  0  0  0  0  0  0  0  0  0  0  0
   14.8930    5.0530    0.9570 C   0  0  0  0  0  0  0  0  0  0  0  0
   15.9560    7.9990   -3.5360 C   0  0  0  0  0  0  0  0  0  0  0  0
   14.4520    3.4460   -2.0650 O   0  0  0  0  0  0  0  0  0  0  0  0
   15.1490    4.9010    2.3090 O   0  0  0  0  0  0  0  0  0  0  0  0
   14.8470    6.2360   -2.0390 C   0  0  0  0  0  0  0  0  0  0  0  0
   15.7760    5.8940    0.3180 C   0  0  0  0  0  0  0  0  0  0  0  0
   13.3260    4.2360   -1.9590 C   0  0  0  0  0  0  0  0  0  0  0  0
   13.5100    5.6380   -1.8750 C   0  0  0  0  0  0  0  0  0  0  0  0
   15.0640    6.7600   -3.4500 C   0  0  0  0  0  0  0  0  0  0  0  0
  1  2  2  0
  1  6  1  0
  2  3  1  0
  2  9  1  0
  3  4  2  0
  4  5  1  0
  4 19  1  0
  5  6  2  0
  5 21  1  0
  6 10  1  0
  7 18  1  0
  8 24  1  0
 11 20  2  0
 11 21  1  0
 12 13  2  0
 12 14  1  0
 13 15  1  0
 14 22  2  0
 15 23  2  0
 16 19  1  0
 16 21  2  0
 17 24  1  0
 18 22  1  0
 20 23  1  0
 20 24  1  0
 22 23  1  0
M  CHG  1   3   1
M  END
