
     RDKit          3D

 27 30  0  0  1  0  0  0  0  0999 V2000
   50.0280   43.3200   -5.3690 C   0  0  0  0  0  0  0  0  0  0  0  0
   49.6940   42.4260   -4.1730 C   0  0  0  0  0  0  0  0  0  0  0  0
   50.2210   42.6950   -2.8810 C   0  0  0  0  0  0  0  0  0  0  0  0
   48.7990   41.3290   -4.3210 C   0  0  0  0  0  0  0  0  0  0  0  0
   49.9160   41.9370   -1.8110 N   0  0  0  0  0  0  0  0  0  0  0  0
   48.2770   40.9730   -5.6880 C   0  0  0  0  0  0  0  0  0  0  0  0
   51.1430   43.8010   -2.5500 C   0  0  0  0  0  0  0  0  0  0  0  0
   48.4250   40.5910   -3.1610 C   0  0  0  0  0  0  0  0  0  0  0  0
   49.0390   40.9250   -1.9230 C   0  0  0  0  0  0  0  0  0  0  0  0
   52.2790   44.0600   -3.3430 C   0  0  0  0  0  0  0  0  0  0  0  0
   50.9350   44.6030   -1.4010 C   0  0  0  0  0  0  0  0  0  0  0  0
   47.0460   40.9870   -5.9050 O   0  0  0  0  0  0  0  0  0  0  0  0
   49.1020   40.7000   -6.5850 O   0  0  0  0  0  0  0  0  0  0  0  0
   47.4580   39.5530   -3.1860 C   0  0  0  0  0  0  0  0  0  0  0  0
   48.7030   40.1980   -0.7630 C   0  0  0  0  0  0  0  0  0  0  0  0
   53.1800   45.0810   -2.9980 C   0  0  0  0  0  0  0  0  0  0  0  0
   51.8660   45.5930   -1.0290 C   0  0  0  0  0  0  0  0  0  0  0  0
   47.1110   38.8610   -2.0130 C   0  0  0  0  0  0  0  0  0  0  0  0
   47.7460   39.1710   -0.8030 C   0  0  0  0  0  0  0  0  0  0  0  0
   53.0130   45.8230   -1.8150 C   0  0  0  0  0  0  0  0  0  0  0  0
   46.1590   37.9020   -2.0430 F   0  0  0  0  0  0  0  0  0  0  0  0
   54.0600   46.7590   -1.3920 C   0  0  0  0  0  0  0  0  0  0  0  0
   54.7840   46.5180   -0.2030 C   0  0  0  0  0  0  0  0  0  0  0  0
   54.3990   47.8760   -2.1830 C   0  0  0  0  0  0  0  0  0  0  0  0
   55.8450   47.3600    0.1760 C   0  0  0  0  0  0  0  0  0  0  0  0
   56.1750   48.4720   -0.6200 C   0  0  0  0  0  0  0  0  0  0  0  0
   55.4400   48.7370   -1.7890 C   0  0  0  0  0  0  0  0  0  0  0  0
  1  2  1  0
  2  3  2  0
  2  4  1  0
  3  5  1  0
  3  7  1  0
  4  6  1  0
  4  8  2  0
  5  9  2  0
  6 12  2  0
  6 13  1  0
  7 10  2  0
  7 11  1  0
  8  9  1  0
  8 14  1  0
  9 15  1  0
 10 16  1  0
 11 17  2  0
 14 18  2  0
 15 19  2  0
 16 20  2  0
 17 20  1  0
 18 19  1  0
 18 21  1  0
 20 22  1  0
 22 23  2  0
 22 24  1  0
 23 25  1  0
 24 27  2  0
 25 26  2  0
 26 27  1  0
M  CHG  1  13  -1
M  END
